<?xml version="1.0" encoding="UTF-8"?>

<!-- generated on 2025-03-10 22:57:53 by Eclipse SUMO netconvert Version 1.22.0
<netconvertConfiguration xmlns:xsi="http://www.w3.org/2001/XMLSchema-instance" xsi:noNamespaceSchemaLocation="http://sumo.dlr.de/xsd/netconvertConfiguration.xsd">

    <input>
        <sumo-net-file value="osm.net.xml"/>
    </input>

    <output>
        <output.street-names value="true"/>
    </output>

    <processing>
        <geometry.min-radius.fix.railways value="false"/>
        <geometry.max-grade.fix value="false"/>
        <offset.disable-normalization value="true"/>
        <lefthand value="1"/>
    </processing>

    <junctions>
        <no-turnarounds value="true"/>
        <junctions.corner-detail value="5"/>
        <junctions.limit-turn-speed value="5.50"/>
        <rectangular-lane-cut value="0"/>
    </junctions>

    <pedestrian>
        <walkingareas value="0"/>
    </pedestrian>

</netconvertConfiguration>
-->

<net version="1.20" junctionCornerDetail="5" lefthand="true" limitTurnSpeed="5.50" xmlns:xsi="http://www.w3.org/2001/XMLSchema-instance" xsi:noNamespaceSchemaLocation="http://sumo.dlr.de/xsd/net_file.xsd">

    <location netOffset="-686488.78,-992406.50" convBoundary="0.00,0.00,2345.59,1369.24" origBoundary="76.696361,8.973920,76.717670,8.986286" projParameter="+proj=utm +zone=43 +ellps=WGS84 +datum=WGS84 +units=m +no_defs"/>

    <type id="highway.residential" priority="3" numLanes="1" speed="13.89" disallow="tram rail_urban rail rail_electric rail_fast ship container cable_car subway aircraft wheelchair scooter drone" oneway="0"/>
    <type id="highway.secondary" priority="11" numLanes="1" speed="27.78" disallow="tram rail_urban rail rail_electric rail_fast ship container cable_car subway aircraft wheelchair scooter drone" oneway="0"/>
    <type id="highway.trunk" priority="13" numLanes="2" speed="27.78" disallow="pedestrian bicycle tram rail_urban rail rail_electric rail_fast ship container cable_car subway aircraft wheelchair scooter drone" oneway="0"/>
    <type id="highway.unclassified" priority="4" numLanes="1" speed="13.89" disallow="tram rail_urban rail rail_electric rail_fast ship container cable_car subway aircraft wheelchair scooter drone" oneway="0"/>
    <type id="railway.rail" priority="20" numLanes="1" speed="44.44" allow="rail" oneway="1"/>

    <edge id=":10207564177_0" function="internal">
        <lane id=":10207564177_0_0" index="0" disallow="tram rail_urban rail rail_electric rail_fast ship container cable_car subway aircraft wheelchair scooter drone" speed="5.83" length="9.13" shape="1877.40,559.55 1874.92,560.53 1873.03,560.32 1871.74,558.93 1871.04,556.35"/>
    </edge>
    <edge id=":10207564177_1" function="internal">
        <lane id=":10207564177_1_0" index="0" disallow="tram rail_urban rail rail_electric rail_fast ship container cable_car subway aircraft wheelchair scooter drone" speed="13.89" length="14.92" shape="1877.40,559.55 1864.41,566.87"/>
    </edge>
    <edge id=":10207564177_2" function="internal">
        <lane id=":10207564177_2_0" index="0" disallow="tram rail_urban rail rail_electric rail_fast ship container cable_car subway aircraft wheelchair scooter drone" speed="3.65" length="1.44" shape="1877.40,559.55 1876.75,560.84"/>
    </edge>
    <edge id=":10207564177_9" function="internal">
        <lane id=":10207564177_9_0" index="0" disallow="tram rail_urban rail rail_electric rail_fast ship container cable_car subway aircraft wheelchair scooter drone" speed="3.65" length="3.23" shape="1876.75,560.84 1876.79,561.73 1877.53,562.23 1878.97,562.34"/>
    </edge>
    <edge id=":10207564177_3" function="internal">
        <lane id=":10207564177_3_0" index="0" disallow="tram rail_urban rail rail_electric rail_fast ship container cable_car subway aircraft wheelchair scooter drone" speed="13.89" length="14.92" shape="1865.98,569.66 1878.97,562.34"/>
    </edge>
    <edge id=":10207564177_4" function="internal">
        <lane id=":10207564177_4_0" index="0" disallow="tram rail_urban rail rail_electric rail_fast ship container cable_car subway aircraft wheelchair scooter drone" speed="9.74" length="3.62" shape="1865.98,569.66 1868.65,567.50 1868.75,567.35"/>
    </edge>
    <edge id=":10207564177_5" function="internal">
        <lane id=":10207564177_5_0" index="0" disallow="tram rail_urban rail rail_electric rail_fast ship container cable_car subway aircraft wheelchair scooter drone" speed="3.65" length="1.44" shape="1865.98,569.66 1866.63,568.38"/>
    </edge>
    <edge id=":10207564177_10" function="internal">
        <lane id=":10207564177_10_0" index="0" disallow="tram rail_urban rail rail_electric rail_fast ship container cable_car subway aircraft wheelchair scooter drone" speed="9.74" length="11.53" shape="1868.75,567.35 1870.39,564.56 1871.19,560.85 1871.04,556.35"/>
    </edge>
    <edge id=":10207564177_11" function="internal">
        <lane id=":10207564177_11_0" index="0" disallow="tram rail_urban rail rail_electric rail_fast ship container cable_car subway aircraft wheelchair scooter drone" speed="3.65" length="3.23" shape="1866.63,568.38 1866.59,567.48 1865.85,566.98 1864.41,566.87"/>
    </edge>
    <edge id=":10207564177_6" function="internal">
        <lane id=":10207564177_6_0" index="0" disallow="tram rail_urban rail rail_electric rail_fast ship container cable_car subway aircraft wheelchair scooter drone" speed="8.50" length="11.36" shape="1867.87,556.75 1868.01,560.25 1867.48,563.10 1866.28,565.31 1864.41,566.87"/>
    </edge>
    <edge id=":10207564177_7" function="internal">
        <lane id=":10207564177_7_0" index="0" disallow="tram rail_urban rail rail_electric rail_fast ship container cable_car subway aircraft wheelchair scooter drone" speed="7.49" length="15.95" shape="1867.87,556.75 1869.08,561.25 1871.34,563.68 1874.64,564.04 1878.97,562.34"/>
    </edge>
    <edge id=":10207564177_8" function="internal">
        <lane id=":10207564177_8_0" index="0" disallow="tram rail_urban rail rail_electric rail_fast ship container cable_car subway aircraft wheelchair scooter drone" speed="3.65" length="4.67" shape="1867.87,556.75 1868.81,557.84 1869.66,558.14 1870.40,557.64 1871.04,556.35"/>
    </edge>
    <edge id=":10207564179_0" function="internal">
        <lane id=":10207564179_0_0" index="0" disallow="tram rail_urban rail rail_electric rail_fast ship container cable_car subway aircraft wheelchair scooter drone" speed="13.89" length="14.40" shape="1863.21,382.66 1859.55,382.52 1856.01,382.35 1852.48,382.04 1848.87,381.48"/>
    </edge>
    <edge id=":10207564179_1" function="internal">
        <lane id=":10207564179_1_0" index="0" disallow="tram rail_urban rail rail_electric rail_fast ship container cable_car subway aircraft wheelchair scooter drone" speed="7.88" length="4.18" shape="1863.21,382.66 1859.23,383.05 1859.08,383.14"/>
    </edge>
    <edge id=":10207564179_2" function="internal">
        <lane id=":10207564179_2_0" index="0" disallow="tram rail_urban rail rail_electric rail_fast ship container cable_car subway aircraft wheelchair scooter drone" speed="3.65" length="1.44" shape="1863.21,382.66 1861.97,383.40"/>
    </edge>
    <edge id=":10207564179_9" function="internal">
        <lane id=":10207564179_9_0" index="0" disallow="tram rail_urban rail rail_electric rail_fast ship container cable_car subway aircraft wheelchair scooter drone" speed="7.88" length="10.28" shape="1859.08,383.14 1856.42,384.64 1854.77,387.42 1854.30,391.39"/>
    </edge>
    <edge id=":10207564179_10" function="internal">
        <lane id=":10207564179_10_0" index="0" disallow="tram rail_urban rail rail_electric rail_fast ship container cable_car subway aircraft wheelchair scooter drone" speed="3.65" length="3.23" shape="1861.97,383.40 1861.54,384.18 1861.90,385.00 1863.07,385.85"/>
    </edge>
    <edge id=":10207564179_3" function="internal">
        <lane id=":10207564179_3_0" index="0" disallow="tram rail_urban rail rail_electric rail_fast ship container cable_car subway aircraft wheelchair scooter drone" speed="6.36" length="9.04" shape="1857.50,391.31 1857.80,388.83 1858.82,387.09 1860.58,386.10 1863.07,385.85"/>
    </edge>
    <edge id=":10207564179_4" function="internal">
        <lane id=":10207564179_4_0" index="0" disallow="tram rail_urban rail rail_electric rail_fast ship container cable_car subway aircraft wheelchair scooter drone" speed="8.75" length="14.30" shape="1857.50,391.31 1856.89,387.64 1855.24,384.77 1852.57,382.72 1848.87,381.48"/>
    </edge>
    <edge id=":10207564179_5" function="internal">
        <lane id=":10207564179_5_0" index="0" disallow="tram rail_urban rail rail_electric rail_fast ship container cable_car subway aircraft wheelchair scooter drone" speed="3.65" length="4.67" shape="1857.50,391.31 1856.67,390.13 1855.86,389.75 1855.07,390.17 1854.30,391.39"/>
    </edge>
    <edge id=":10207564179_6" function="internal">
        <lane id=":10207564179_6_0" index="0" disallow="tram rail_urban rail rail_electric rail_fast ship container cable_car subway aircraft wheelchair scooter drone" speed="7.24" length="9.51" shape="1848.73,384.71 1851.11,385.54 1852.84,386.92 1853.90,388.88 1854.30,391.39"/>
    </edge>
    <edge id=":10207564179_7" function="internal">
        <lane id=":10207564179_7_0" index="0" disallow="tram rail_urban rail rail_electric rail_fast ship container cable_car subway aircraft wheelchair scooter drone" speed="13.89" length="14.40" shape="1848.73,384.71 1852.34,385.27 1855.86,385.57 1859.41,385.72 1863.07,385.85"/>
    </edge>
    <edge id=":10207564179_8" function="internal">
        <lane id=":10207564179_8_0" index="0" disallow="tram rail_urban rail rail_electric rail_fast ship container cable_car subway aircraft wheelchair scooter drone" speed="3.66" length="1.46" shape="1848.73,384.71 1849.98,383.96"/>
    </edge>
    <edge id=":10207564179_11" function="internal">
        <lane id=":10207564179_11_0" index="0" disallow="tram rail_urban rail rail_electric rail_fast ship container cable_car subway aircraft wheelchair scooter drone" speed="3.66" length="3.27" shape="1849.98,383.96 1850.42,383.17 1850.05,382.34 1848.87,381.48"/>
    </edge>
    <edge id=":1051448636_0" function="internal">
        <lane id=":1051448636_0_0" index="0" disallow="pedestrian bicycle tram rail_urban rail rail_electric rail_fast ship container cable_car subway aircraft wheelchair scooter drone" speed="19.44" length="13.87" shape="990.61,466.62 987.36,465.15 984.36,463.63 981.42,461.99 978.36,460.14"/>
    </edge>
    <edge id=":1051448636_1" function="internal">
        <lane id=":1051448636_1_0" index="0" disallow="pedestrian bicycle tram rail_urban rail rail_electric rail_fast ship container cable_car subway aircraft wheelchair scooter drone" speed="9.29" length="3.57" shape="990.61,466.62 987.26,465.77 987.15,465.78"/>
    </edge>
    <edge id=":1051448636_2" function="internal">
        <lane id=":1051448636_2_0" index="0" disallow="pedestrian bicycle tram rail_urban rail rail_electric rail_fast ship container cable_car subway aircraft wheelchair scooter drone" speed="3.65" length="1.44" shape="990.61,466.62 989.20,466.88"/>
    </edge>
    <edge id=":1051448636_9" function="internal">
        <lane id=":1051448636_9_0" index="0" disallow="pedestrian bicycle tram rail_urban rail rail_electric rail_fast ship container cable_car subway aircraft wheelchair scooter drone" speed="9.29" length="10.83" shape="987.15,465.78 983.99,466.11 980.81,467.63 977.72,470.35"/>
    </edge>
    <edge id=":1051448636_10" function="internal">
        <lane id=":1051448636_10_0" index="0" disallow="pedestrian bicycle tram rail_urban rail rail_electric rail_fast ship container cable_car subway aircraft wheelchair scooter drone" speed="3.65" length="3.23" shape="989.20,466.88 988.52,467.46 988.57,468.36 989.36,469.56"/>
    </edge>
    <edge id=":1051448636_3" function="internal">
        <lane id=":1051448636_3_0" index="0" disallow="pedestrian bicycle tram rail_urban rail rail_electric rail_fast ship container cable_car subway aircraft wheelchair scooter drone" speed="7.99" length="10.44" shape="980.07,472.52 982.37,470.47 984.68,469.30 987.01,468.99 989.36,469.56"/>
    </edge>
    <edge id=":1051448636_4" function="internal">
        <lane id=":1051448636_4_0" index="0" disallow="pedestrian bicycle tram rail_urban rail rail_electric rail_fast ship container cable_car subway aircraft wheelchair scooter drone" speed="7.70" length="14.97" shape="980.07,472.52 982.46,469.04 982.97,465.81 981.60,462.85 978.36,460.14"/>
    </edge>
    <edge id=":1051448636_5" function="internal">
        <lane id=":1051448636_5_0" index="0" disallow="tram rail_urban rail rail_electric rail_fast ship container cable_car subway aircraft wheelchair scooter drone" speed="3.65" length="4.67" shape="980.07,472.52 980.29,471.10 979.98,470.26 979.12,470.01 977.72,470.35"/>
    </edge>
    <edge id=":1051448636_6" function="internal">
        <lane id=":1051448636_6_0" index="0" disallow="pedestrian bicycle tram rail_urban rail rail_electric rail_fast ship container cable_car subway aircraft wheelchair scooter drone" speed="6.13" length="9.06" shape="976.68,462.87 978.64,464.50 979.47,466.30 979.16,468.25 977.72,470.35"/>
    </edge>
    <edge id=":1051448636_7" function="internal">
        <lane id=":1051448636_7_0" index="0" disallow="pedestrian bicycle tram rail_urban rail rail_electric rail_fast ship container cable_car subway aircraft wheelchair scooter drone" speed="19.44" length="14.35" shape="976.68,462.87 979.81,464.74 982.89,466.46 986.04,468.06 989.36,469.56"/>
    </edge>
    <edge id=":1051448636_8" function="internal">
        <lane id=":1051448636_8_0" index="0" disallow="pedestrian bicycle tram rail_urban rail rail_electric rail_fast ship container cable_car subway aircraft wheelchair scooter drone" speed="3.65" length="1.44" shape="976.68,462.87 978.12,462.82"/>
    </edge>
    <edge id=":1051448636_11" function="internal">
        <lane id=":1051448636_11_0" index="0" disallow="pedestrian bicycle tram rail_urban rail rail_electric rail_fast ship container cable_car subway aircraft wheelchair scooter drone" speed="3.65" length="3.23" shape="978.12,462.82 978.88,462.34 978.96,461.45 978.36,460.14"/>
    </edge>
    <edge id=":12146414290_0" function="internal">
        <lane id=":12146414290_0_0" index="0" disallow="tram rail_urban rail rail_electric rail_fast ship container cable_car subway aircraft wheelchair scooter drone" speed="3.65" length="4.67" shape="1569.37,21.68 1568.60,20.46 1567.81,20.04 1567.00,20.42 1566.17,21.60"/>
    </edge>
    <edge id=":12146414306_0" function="internal">
        <lane id=":12146414306_0_0" index="0" disallow="tram rail_urban rail rail_electric rail_fast ship container cable_car subway aircraft wheelchair scooter drone" speed="13.89" length="12.67" shape="1351.11,233.14 1347.73,233.37 1344.78,233.40 1341.84,233.24 1338.47,232.89"/>
    </edge>
    <edge id=":12146414306_1" function="internal">
        <lane id=":12146414306_1_0" index="0" disallow="tram rail_urban rail rail_electric rail_fast ship container cable_car subway aircraft wheelchair scooter drone" speed="8.07" length="3.71" shape="1351.11,233.14 1347.64,233.93 1347.51,234.02"/>
    </edge>
    <edge id=":12146414306_2" function="internal">
        <lane id=":12146414306_2_0" index="0" disallow="tram rail_urban rail rail_electric rail_fast ship container cable_car subway aircraft wheelchair scooter drone" speed="3.65" length="1.44" shape="1351.11,233.14 1349.98,234.04"/>
    </edge>
    <edge id=":12146414306_9" function="internal">
        <lane id=":12146414306_9_0" index="0" disallow="tram rail_urban rail rail_electric rail_fast ship container cable_car subway aircraft wheelchair scooter drone" speed="8.07" length="9.50" shape="1347.51,234.02 1345.13,235.63 1343.58,238.25 1342.98,241.78"/>
    </edge>
    <edge id=":12146414306_10" function="internal">
        <lane id=":12146414306_10_0" index="0" disallow="tram rail_urban rail rail_electric rail_fast ship container cable_car subway aircraft wheelchair scooter drone" speed="3.65" length="3.23" shape="1349.98,234.04 1349.65,234.87 1350.12,235.64 1351.38,236.33"/>
    </edge>
    <edge id=":12146414306_3" function="internal">
        <lane id=":12146414306_3_0" index="0" disallow="tram rail_urban rail rail_electric rail_fast ship container cable_car subway aircraft wheelchair scooter drone" speed="6.58" length="8.46" shape="1346.18,241.87 1346.56,239.61 1347.55,237.93 1349.16,236.84 1351.38,236.33"/>
    </edge>
    <edge id=":12146414306_4" function="internal">
        <lane id=":12146414306_4_0" index="0" disallow="tram rail_urban rail rail_electric rail_fast ship container cable_car subway aircraft wheelchair scooter drone" speed="8.02" length="13.24" shape="1346.18,241.87 1345.79,238.31 1344.37,235.62 1341.93,233.82 1338.47,232.89"/>
    </edge>
    <edge id=":12146414306_5" function="internal">
        <lane id=":12146414306_5_0" index="0" disallow="tram rail_urban rail rail_electric rail_fast ship container cable_car subway aircraft wheelchair scooter drone" speed="3.65" length="4.67" shape="1346.18,241.87 1345.42,240.65 1344.63,240.23 1343.82,240.60 1342.98,241.78"/>
    </edge>
    <edge id=":12146414306_6" function="internal">
        <lane id=":12146414306_6_0" index="0" disallow="tram rail_urban rail rail_electric rail_fast ship container cable_car subway aircraft wheelchair scooter drone" speed="6.52" length="8.42" shape="1338.08,236.06 1340.28,236.65 1341.83,237.80 1342.73,239.51 1342.98,241.78"/>
    </edge>
    <edge id=":12146414306_7" function="internal">
        <lane id=":12146414306_7_0" index="0" disallow="tram rail_urban rail rail_electric rail_fast ship container cable_car subway aircraft wheelchair scooter drone" speed="13.89" length="13.33" shape="1338.08,236.06 1341.55,236.42 1344.72,236.58 1347.90,236.55 1351.38,236.33"/>
    </edge>
    <edge id=":12146414306_8" function="internal">
        <lane id=":12146414306_8_0" index="0" disallow="tram rail_urban rail rail_electric rail_fast ship container cable_car subway aircraft wheelchair scooter drone" speed="3.65" length="1.44" shape="1338.08,236.06 1339.36,235.42"/>
    </edge>
    <edge id=":12146414306_11" function="internal">
        <lane id=":12146414306_11_0" index="0" disallow="tram rail_urban rail rail_electric rail_fast ship container cable_car subway aircraft wheelchair scooter drone" speed="3.65" length="3.23" shape="1339.36,235.42 1339.86,234.67 1339.56,233.83 1338.47,232.89"/>
    </edge>
    <edge id=":12146414307_0" function="internal">
        <lane id=":12146414307_0_0" index="0" disallow="tram rail_urban rail rail_electric rail_fast ship container cable_car subway aircraft wheelchair scooter drone" speed="6.50" length="9.04" shape="1342.94,243.23 1342.52,245.68 1341.42,247.40 1339.64,248.40 1337.18,248.67"/>
    </edge>
    <edge id=":12146414307_1" function="internal">
        <lane id=":12146414307_1_0" index="0" disallow="tram rail_urban rail rail_electric rail_fast ship container cable_car subway aircraft wheelchair scooter drone" speed="11.11" length="14.09" shape="1342.94,243.23 1343.37,245.78 1344.79,248.52 1347.21,251.45 1350.63,254.56"/>
    </edge>
    <edge id=":12146414307_2" function="internal">
        <lane id=":12146414307_2_0" index="0" disallow="tram rail_urban rail rail_electric rail_fast ship container cable_car subway aircraft wheelchair scooter drone" speed="3.65" length="4.67" shape="1342.94,243.23 1343.70,244.46 1344.48,244.89 1345.30,244.52 1346.14,243.35"/>
    </edge>
    <edge id=":12146414307_3" function="internal">
        <lane id=":12146414307_3_0" index="0" disallow="tram rail_urban rail rail_electric rail_fast ship container cable_car subway aircraft wheelchair scooter drone" speed="9.00" length="9.08" shape="1350.98,250.71 1348.83,248.73 1347.30,246.85 1346.41,245.05 1346.14,243.35"/>
    </edge>
    <edge id=":12146414307_4" function="internal">
        <lane id=":12146414307_4_0" index="0" disallow="tram rail_urban rail rail_electric rail_fast ship container cable_car subway aircraft wheelchair scooter drone" speed="13.89" length="14.25" shape="1350.98,250.71 1347.89,249.07 1344.50,248.56 1340.90,248.61 1337.18,248.67"/>
    </edge>
    <edge id=":12146414307_5" function="internal">
        <lane id=":12146414307_5_0" index="0" disallow="tram rail_urban rail rail_electric rail_fast ship container cable_car subway aircraft wheelchair scooter drone" speed="3.90" length="1.74" shape="1350.98,250.71 1349.45,251.54"/>
    </edge>
    <edge id=":12146414307_9" function="internal">
        <lane id=":12146414307_9_0" index="0" disallow="tram rail_urban rail rail_electric rail_fast ship container cable_car subway aircraft wheelchair scooter drone" speed="3.90" length="3.90" shape="1349.45,251.54 1348.88,252.46 1349.27,253.46 1350.63,254.56"/>
    </edge>
    <edge id=":12146414307_6" function="internal">
        <lane id=":12146414307_6_0" index="0" disallow="tram rail_urban rail rail_electric rail_fast ship container cable_car subway aircraft wheelchair scooter drone" speed="13.89" length="14.10" shape="1337.07,251.87 1340.76,251.91 1344.28,252.08 1347.58,252.82 1350.63,254.56"/>
    </edge>
    <edge id=":12146414307_7" function="internal">
        <lane id=":12146414307_7_0" index="0" disallow="tram rail_urban rail rail_electric rail_fast ship container cable_car subway aircraft wheelchair scooter drone" speed="7.99" length="4.46" shape="1337.07,251.87 1340.95,251.44 1341.44,251.17"/>
    </edge>
    <edge id=":12146414307_8" function="internal">
        <lane id=":12146414307_8_0" index="0" disallow="tram rail_urban rail rail_electric rail_fast ship container cable_car subway aircraft wheelchair scooter drone" speed="3.65" length="1.44" shape="1337.07,251.87 1338.30,251.11"/>
    </edge>
    <edge id=":12146414307_10" function="internal">
        <lane id=":12146414307_10_0" index="0" disallow="tram rail_urban rail rail_electric rail_fast ship container cable_car subway aircraft wheelchair scooter drone" speed="7.99" length="9.74" shape="1341.44,251.17 1343.75,249.88 1345.48,247.18 1346.14,243.35"/>
    </edge>
    <edge id=":12146414307_11" function="internal">
        <lane id=":12146414307_11_0" index="0" disallow="tram rail_urban rail rail_electric rail_fast ship container cable_car subway aircraft wheelchair scooter drone" speed="3.65" length="3.23" shape="1338.30,251.11 1338.73,250.32 1338.35,249.51 1337.18,248.67"/>
    </edge>
    <edge id=":12146414321_0" function="internal">
        <lane id=":12146414321_0_0" index="0" disallow="tram rail_urban rail rail_electric rail_fast ship container cable_car subway aircraft wheelchair scooter drone" speed="3.65" length="4.67" shape="1323.79,30.96 1323.18,29.66 1322.44,29.15 1321.59,29.43 1320.63,30.50"/>
    </edge>
    <edge id=":12146414356_0" function="internal">
        <lane id=":12146414356_0_0" index="0" disallow="tram rail_urban rail rail_electric rail_fast ship container cable_car subway aircraft wheelchair scooter drone" speed="7.32" length="10.04" shape="688.03,931.37 685.16,930.77 683.04,929.58 681.68,927.81 681.06,925.45"/>
    </edge>
    <edge id=":12146414356_1" function="internal">
        <lane id=":12146414356_1_0" index="0" disallow="tram rail_urban rail rail_electric rail_fast ship container cable_car subway aircraft wheelchair scooter drone" speed="7.71" length="14.93" shape="688.03,931.37 683.83,931.58 680.95,933.11 679.39,935.97 679.15,940.17"/>
    </edge>
    <edge id=":12146414356_2" function="internal">
        <lane id=":12146414356_2_0" index="0" disallow="tram rail_urban rail rail_electric rail_fast ship container cable_car subway aircraft wheelchair scooter drone" speed="3.65" length="4.67" shape="688.03,931.37 686.76,932.06 686.28,932.82 686.61,933.65 687.72,934.56"/>
    </edge>
    <edge id=":12146414356_3" function="internal">
        <lane id=":12146414356_3_0" index="0" disallow="tram rail_urban rail rail_electric rail_fast ship container cable_car subway aircraft wheelchair scooter drone" speed="6.15" length="9.06" shape="682.34,939.89 682.48,937.35 683.43,935.61 685.18,934.68 687.72,934.56"/>
    </edge>
    <edge id=":12146414356_4" function="internal">
        <lane id=":12146414356_4_0" index="0" disallow="tram rail_urban rail rail_electric rail_fast ship container cable_car subway aircraft wheelchair scooter drone" speed="13.89" length="14.50" shape="682.34,939.89 681.06,925.45"/>
    </edge>
    <edge id=":12146414356_5" function="internal">
        <lane id=":12146414356_5_0" index="0" disallow="tram rail_urban rail rail_electric rail_fast ship container cable_car subway aircraft wheelchair scooter drone" speed="3.65" length="1.44" shape="682.34,939.89 681.44,938.77"/>
    </edge>
    <edge id=":12146414356_9" function="internal">
        <lane id=":12146414356_9_0" index="0" disallow="tram rail_urban rail rail_electric rail_fast ship container cable_car subway aircraft wheelchair scooter drone" speed="3.65" length="3.23" shape="681.44,938.77 680.61,938.44 679.85,938.91 679.15,940.17"/>
    </edge>
    <edge id=":12146414356_6" function="internal">
        <lane id=":12146414356_6_0" index="0" disallow="tram rail_urban rail rail_electric rail_fast ship container cable_car subway aircraft wheelchair scooter drone" speed="13.89" length="14.49" shape="677.87,925.74 679.15,940.17"/>
    </edge>
    <edge id=":12146414356_7" function="internal">
        <lane id=":12146414356_7_0" index="0" disallow="tram rail_urban rail rail_electric rail_fast ship container cable_car subway aircraft wheelchair scooter drone" speed="8.69" length="3.79" shape="677.87,925.74 678.76,929.27 678.85,929.39"/>
    </edge>
    <edge id=":12146414356_8" function="internal">
        <lane id=":12146414356_8_0" index="0" disallow="tram rail_urban rail rail_electric rail_fast ship container cable_car subway aircraft wheelchair scooter drone" speed="3.65" length="1.44" shape="677.87,925.74 678.78,926.86"/>
    </edge>
    <edge id=":12146414356_10" function="internal">
        <lane id=":12146414356_10_0" index="0" disallow="tram rail_urban rail rail_electric rail_fast ship container cable_car subway aircraft wheelchair scooter drone" speed="8.69" length="10.74" shape="678.85,929.39 680.70,931.92 683.69,933.68 687.72,934.56"/>
    </edge>
    <edge id=":12146414356_11" function="internal">
        <lane id=":12146414356_11_0" index="0" disallow="tram rail_urban rail rail_electric rail_fast ship container cable_car subway aircraft wheelchair scooter drone" speed="3.65" length="3.23" shape="678.78,926.86 679.61,927.19 680.37,926.72 681.06,925.45"/>
    </edge>
    <edge id=":12146414362_0" function="internal">
        <lane id=":12146414362_0_0" index="0" disallow="tram rail_urban rail rail_electric rail_fast ship container cable_car subway aircraft wheelchair scooter drone" speed="6.07" length="8.82" shape="749.11,1049.91 747.71,1052.07 746.07,1053.14 744.18,1053.14 742.05,1052.05"/>
    </edge>
    <edge id=":12146414362_1" function="internal">
        <lane id=":12146414362_1_0" index="0" disallow="tram rail_urban rail rail_electric rail_fast ship container cable_car subway aircraft wheelchair scooter drone" speed="7.93" length="14.36" shape="749.11,1049.91 747.94,1053.69 748.30,1056.90 750.17,1059.52 753.56,1061.56"/>
    </edge>
    <edge id=":12146414362_2" function="internal">
        <lane id=":12146414362_2_0" index="0" disallow="tram rail_urban rail rail_electric rail_fast ship container cable_car subway aircraft wheelchair scooter drone" speed="3.65" length="4.67" shape="749.11,1049.91 749.32,1051.34 749.87,1052.04 750.77,1052.02 752.00,1051.28"/>
    </edge>
    <edge id=":12146414362_3" function="internal">
        <lane id=":12146414362_3_0" index="0" disallow="tram rail_urban rail rail_electric rail_fast ship container cable_car subway aircraft wheelchair scooter drone" speed="6.42" length="9.04" shape="754.80,1058.61 752.67,1057.33 751.49,1055.68 751.27,1053.66 752.00,1051.28"/>
    </edge>
    <edge id=":12146414362_4" function="internal">
        <lane id=":12146414362_4_0" index="0" disallow="tram rail_urban rail rail_electric rail_fast ship container cable_car subway aircraft wheelchair scooter drone" speed="8.33" length="14.38" shape="754.80,1058.61 751.44,1057.18 748.22,1055.70 745.10,1054.03 742.05,1052.05"/>
    </edge>
    <edge id=":12146414362_5" function="internal">
        <lane id=":12146414362_5_0" index="0" disallow="tram rail_urban rail rail_electric rail_fast ship container cable_car subway aircraft wheelchair scooter drone" speed="3.65" length="4.67" shape="754.80,1058.61 753.39,1058.88 752.71,1059.46 752.76,1060.35 753.56,1061.56"/>
    </edge>
    <edge id=":12146414362_6" function="internal">
        <lane id=":12146414362_6_0" index="0" disallow="tram rail_urban rail rail_electric rail_fast ship container cable_car subway aircraft wheelchair scooter drone" speed="8.33" length="14.39" shape="740.76,1055.06 743.82,1057.04 746.95,1058.68 750.18,1060.14 753.56,1061.56"/>
    </edge>
    <edge id=":12146414362_7" function="internal">
        <lane id=":12146414362_7_0" index="0" disallow="tram rail_urban rail rail_electric rail_fast ship container cable_car subway aircraft wheelchair scooter drone" speed="7.52" length="14.16" shape="740.76,1055.06 744.10,1056.74 747.09,1056.66 749.73,1054.85 752.00,1051.28"/>
    </edge>
    <edge id=":12146414362_8" function="internal">
        <lane id=":12146414362_8_0" index="0" disallow="tram rail_urban rail rail_electric rail_fast ship container cable_car subway aircraft wheelchair scooter drone" speed="3.68" length="4.79" shape="740.76,1055.06 742.21,1054.79 742.91,1054.20 742.86,1053.28 742.05,1052.05"/>
    </edge>
    <edge id=":12146423083_0" function="internal">