<?xml version="1.0" encoding="UTF-8"?>

<!-- generated on 2025-03-21 22:53:41 by Eclipse SUMO polyconvert Version 1.22.0
<polyconvertConfiguration xmlns:xsi="http://www.w3.org/2001/XMLSchema-instance" xsi:noNamespaceSchemaLocation="http://sumo.dlr.de/xsd/polyconvertConfiguration.xsd">

    <input>
        <net-file value="osm.net.xml.gz"/>
        <osm-files value="osm_bbox.osm.xml.gz"/>
        <osm.keep-full-type value="true"/>
        <osm.merge-relations value="1"/>
        <type-file value="${SUMO_HOME}\data\typemap\osmPolyconvert.typ.xml"/>
    </input>

    <output>
        <output-file value="osm.poly.xml.gz"/>
    </output>

    <report>
        <verbose value="true"/>
    </report>

</polyconvertConfiguration>
-->

<additional xmlns:xsi="http://www.w3.org/2001/XMLSchema-instance" xsi:noNamespaceSchemaLocation="http://sumo.dlr.de/xsd/additional_file.xsd">
    <location netOffset="-712702.83,-3164251.44" convBoundary="-0.32,-8.21,8460.57,5006.35" origBoundary="77.175816,28.587654,77.261505,28.631719" projParameter="+proj=utm +zone=43 +ellps=WGS84 +datum=WGS84 +units=m +no_defs"/>

    <poly id="1000446014" type="landuse.commercial" color="209,209,204" fill="1" layer="-3.00" shape="4610.964194,4474.831638 4495.850790,4705.194757 4576.872895,4748.931229 4660.426432,4693.897728 4665.418943,4690.542576 4703.151635,4660.899715 4745.027358,4634.139055 4796.287292,4606.688427 4788.063012,4597.100368 4778.998664,4587.973418 4754.803306,4565.083172 4724.427371,4537.366037 4696.653120,4527.536243 4610.964194,4474.831638"/>
    <poly id="1001015119" type="building.commercial" color="255,230,230" fill="1" layer="-1.00" shape="4257.057890,4657.109115 4257.042156,4659.536850 4257.026422,4661.964586 4257.010688,4664.392321 4256.994954,4666.820056 4256.979219,4669.247791 4256.963485,4671.675527 4256.947751,4674.103262 4256.932016,4676.530998 4256.916282,4678.958733 4256.900547,4681.386468 4256.894386,4683.825468 4256.878651,4686.253204 4256.862917,4688.680939 4256.847182,4691.108674 4256.831447,4693.536410 4256.815713,4695.964145 4256.799978,4698.391881 4256.784243,4700.819616 4256.768508,4703.247351 4256.752773,4705.675087 4256.737038,4708.102822 4256.721303,4710.530558 4247.179848,4710.752514 4247.516391,4657.331074 4257.057890,4657.109115"/>
    <poly id="1003041200" type="landuse.industrial" color="209,209,204" fill="1" layer="-3.00" shape="7217.449241,4319.228438 7255.306021,4175.852885 7310.197790,4047.931989 7287.668985,4017.750100 7251.330872,3996.710229 7219.589132,3912.837676 7215.338018,3874.130230 7276.219658,3873.446575 7327.385380,3873.367506 7430.249291,3880.781482 7418.243136,3925.591220 7402.006431,3958.690908 7363.704962,3993.082535 7387.822757,4050.047715 7369.096887,4167.030018 7355.276835,4189.742278 7350.575092,4245.654762 7341.401282,4286.060861 7326.494406,4324.939866 7217.449241,4319.228438"/>
    <poly id="1021541332" type="building.yes" color="255,230,230" fill="1" layer="-1.00" shape="6659.691805,602.649301 6670.484554,596.421162 6660.402761,583.515375 6666.125269,576.837402 6657.849613,570.418113 6646.049130,583.944797 6659.691805,602.649301"/>
    <poly id="1021541333" type="building.yes" color="255,230,230" fill="1" layer="-1.00" shape="6665.740602,550.376603 6689.612311,551.167819 6700.599140,566.951047 6690.764722,577.909106 6665.706266,575.698673 6656.300854,568.471030 6665.740602,550.376603"/>
    <poly id="1021541334" type="building.yes" color="255,230,230" fill="1" layer="-1.00" shape="6685.378564,585.435986 6689.035356,590.815218 6715.346237,569.023643 6710.800746,564.071220 6685.378564,585.435986"/>
    <poly id="1024422181" type="landuse.grass" color="194,194,130" fill="1" layer="-3.00" shape="5593.919140,2882.139262 5593.429350,2880.600117 5593.008227,2879.051167 5592.655980,2877.481330 5592.362619,2875.901505 5592.128147,2874.311692 5591.972329,2872.701174 5591.874984,2871.102835 5591.836528,2869.494508 5591.876312,2867.887642 5591.974777,2866.281872 5592.141703,2864.677379 5592.376883,2863.085249 5592.670536,2861.505296 5593.032444,2859.937705 5593.452826,2858.382293 5593.941254,2856.850325 5594.497937,2855.330719 5595.102900,2853.845274 5595.775911,2852.383275 5596.507188,2850.944537 5597.306306,2849.540326 5598.153703,2848.170278 5599.049174,2846.845475 5600.012693,2845.544117 5601.014504,2844.287822 5602.074375,2843.065871 5603.182113,2841.900249 5604.338131,2840.768790 5605.542015,2839.693659 5606.784193,2838.663591 5612.341630,2834.975618 5618.448315,2832.262468 5624.926548,2830.609520 5631.589471,2830.068721 5638.251259,2830.636600 5644.716306,2832.309504 5650.809190,2835.050898 5656.355728,2838.757744 5661.200886,2843.349538 5665.200653,2848.679459 5668.250138,2854.601416 5670.244865,2860.947153 5671.149028,2867.538609 5670.927027,2874.186641 5669.582589,2880.691752 5667.167515,2886.899693 5663.734641,2892.600799 5659.384458,2897.652817 5654.247007,2901.902958 5648.461279,2905.242951 5642.195605,2907.565070 5635.627267,2908.806105 5628.942705,2908.936278 5622.337934,2907.937074 5615.978385,2905.855930 5610.078185,2902.752281 5604.773011,2898.695179 5600.236628,2893.809825 5596.583707,2888.242490 5593.919140,2882.139262"/>
    <poly id="1024422182" type="landuse.grass" color="194,194,130" fill="1" layer="-3.00" shape="5643.321648,2848.315205 5644.592081,2846.820016 5646.883482,2848.281938 5649.224818,2849.689359 5647.773789,2851.425088 5645.633437,2849.733160 5643.321648,2848.315205"/>
    <poly id="1024422183" type="landuse.grass" color="194,194,130" fill="1" layer="-3.00" shape="5649.019075,2852.324214 5651.503905,2854.953880 5653.786559,2858.455642 5655.532132,2861.903026 5656.044115,2864.872806 5656.259019,2868.557691 5658.751502,2868.681849 5658.679005,2865.753537 5657.988911,2862.891300 5656.970432,2859.801190 5655.426982,2857.056060 5653.494602,2854.181709 5651.677358,2851.952553 5650.390208,2850.675689 5649.019075,2852.324214"/>
    <poly id="1024422184" type="landuse.grass" color="194,194,130" fill="1" layer="-3.00" shape="5656.888259,2870.487487 5659.081490,2870.395404 5658.872795,2872.664334 5658.474863,2876.160382 5657.763036,2878.652742 5656.755942,2881.239369 5655.539327,2884.043823 5653.840744,2886.462320 5652.281775,2888.739293 5650.815276,2887.636470 5652.607467,2884.920373 5654.080279,2882.542008 5655.456687,2879.563147 5656.242564,2876.772823 5656.866473,2873.225560 5656.888259,2870.487487"/>
    <poly id="1024422185" type="landuse.grass" color="194,194,130" fill="1" layer="-3.00" shape="5646.426133,2894.251026 5644.966258,2892.793545 5647.640571,2890.515226 5649.225000,2888.970467 5651.010309,2890.289896 5648.590485,2892.561880 5646.426133,2894.251026"/>
    <poly id="1024423419" type="landuse.grass" color="194,194,130" fill="1" layer="-3.00" shape="5623.918341,2875.171358 5624.246158,2875.953566 5624.897961,2876.675303 5625.929326,2877.503910 5627.347909,2878.029313 5628.798524,2878.411184 5630.498608,2878.531626 5630.486243,2879.717700 5629.458711,2879.731773 5628.306106,2879.632641 5627.090835,2879.221904 5625.827699,2878.754839 5624.483991,2877.887138 5623.859252,2877.287864 5623.177488,2876.598828 5622.666746,2875.657987 5622.569720,2875.090740 5623.918341,2875.171358"/>
    <poly id="1024423420" type="landuse.grass" color="194,194,130" fill="1" layer="-3.00" shape="5631.670258,2879.706549 5633.110005,2879.622565 5634.576555,2879.151038 5635.902820,2878.333196 5636.977493,2877.366525 5636.094279,2876.463075 5634.810706,2877.614323 5633.822346,2878.150214 5632.563040,2878.525829 5631.671601,2878.586791 5631.670258,2879.706549"/>
    <poly id="1024423421" type="landuse.grass" color="194,194,130" fill="1" layer="-3.00" shape="5637.730871,2876.316246 5638.460135,2875.509429 5639.043732,2874.644457 5639.507639,2873.378120 5639.748259,2872.018917 5639.784170,2871.143718 5638.375833,2871.117418 5638.320621,2872.502257 5637.956171,2873.681756 5637.538215,2874.583082 5636.718860,2875.499086 5637.730871,2876.316246"/>
    <poly id="1024423422" type="landuse.grass" color="194,194,130" fill="1" layer="-3.00" shape="5638.380074,2869.842497 5639.837312,2869.869710 5639.947272,2868.696546 5639.818577,2867.729577 5639.503231,2866.803470 5639.146281,2866.009630 5638.572099,2865.322603 5637.779389,2864.287799 5636.645621,2865.275541 5637.498874,2866.211692 5638.174428,2867.233221 5638.417588,2868.357545 5638.380074,2869.842497"/>
    <poly id="1024423423" type="landuse.grass" color="194,194,130" fill="1" layer="-3.00" shape="5635.617360,2864.280686 5636.615449,2863.223889 5635.795107,2862.620961 5634.795205,2862.203159 5633.062206,2861.749492 5630.884342,2861.542519 5630.858679,2862.916823 5632.782880,2863.085798 5634.397689,2863.581606 5635.617360,2864.280686"/>
    <poly id="1024423424" type="landuse.grass" color="194,194,130" fill="1" layer="-3.00" shape="5624.197802,2867.016574 5624.823210,2866.008252 5625.748437,2864.661833 5627.145647,2863.712271 5628.437399,2863.170957 5629.605373,2862.971028 5629.571735,2861.628878 5627.529810,2862.000966 5625.852495,2862.756819 5624.381443,2863.993263 5623.186771,2865.622912 5622.526022,2866.952096 5624.197802,2867.016574"/>
    <poly id="1024427218" type="amenity.fountain" color="white" fill="1" layer="0.00" shape="5439.634222,2879.459254 5438.695500,2877.335221 5438.622803,2874.939084 5439.717723,2872.886253 5441.665642,2871.259555 5445.065483,2870.469293 5448.278445,2871.305327 5450.314667,2873.860055 5450.628142,2876.460250 5449.800921,2879.371769 5447.513654,2881.358004 5444.001004,2881.902247 5441.315344,2881.120401 5439.634222,2879.459254"/>
    <poly id="1024427218#1" type="historic.monument" color="white" fill="1" layer="0.00" shape="5439.634222,2879.459254 5438.695500,2877.335221 5438.622803,2874.939084 5439.717723,2872.886253 5441.665642,2871.259555 5445.065483,2870.469293 5448.278445,2871.305327 5450.314667,2873.860055 5450.628142,2876.460250 5449.800921,2879.371769 5447.513654,2881.358004 5444.001004,2881.902247 5441.315344,2881.120401 5439.634222,2879.459254"/>
    <poly id="1024434128" type="historic.monument" color="128,255,128" fill="1" layer="-1.00" shape="5629.113442,2873.073149 5629.155657,2868.716762 5634.693069,2868.720384 5634.542029,2873.141261 5629.113442,2873.073149"/>
    <poly id="1024439082" type="natural.water" color="181,209,209" fill="1" layer="-4.00" shape="5536.149746,2881.493207 5536.129601,2879.951744 5544.909186,2879.749755 5544.878982,2881.367886 5536.149746,2881.493207"/>
    <poly id="1024439083" type="natural.water" color="181,209,209" fill="1" layer="-4.00" shape="5535.406870,2866.256954 5535.357591,2864.703861 5544.625366,2864.555331 5544.632627,2866.262857 5535.406870,2866.256954"/>
    <poly id="1024439084" type="natural.water" color="181,209,209" fill="1" layer="-4.00" shape="5685.196516,2881.770559 5686.139458,2876.333385 5688.418226,2876.375949 5687.469694,2882.112367 5685.196516,2881.770559"/>
    <poly id="1024439085" type="natural.water" color="181,209,209" fill="1" layer="-4.00" shape="5685.861364,2858.223178 5688.161301,2857.656354 5685.970252,2852.393469 5683.755644,2853.106018 5685.861364,2858.223178"/>
    <poly id="1024439952" type="building.yes" color="255,230,230" fill="1" layer="-1.00" shape="5621.456998,3056.751991 5620.824775,3029.311040 5626.094274,3028.988139 5626.099417,3005.661267 5649.418995,3004.832851 5650.986677,3027.756710 5656.813638,3027.444234 5657.288521,3055.447690 5642.928267,3055.877968 5641.862308,3029.138477 5634.326334,3029.286001 5635.095445,3056.729511 5621.456998,3056.751991"/>
    <poly id="1024439953" type="building.yes" color="255,230,230" fill="1" layer="-1.00" shape="5615.972168,2732.755137 5639.568255,2732.342038 5639.583713,2708.461018 5644.553119,2708.498380 5644.202668,2681.683570 5630.001700,2681.418397 5630.480209,2708.712334 5622.956501,2708.715980 5622.738579,2682.136476 5608.663984,2682.439123 5609.444020,2709.306294 5615.698777,2709.145902 5615.972168,2732.755137"/>
    <poly id="1024448926" type="landuse.grass" color="194,194,130" fill="1" layer="-3.00" shape="1774.783739,1750.963889 1791.505397,1743.997675 1795.545883,1752.020896 1789.424591,1753.959674 1790.447821,1756.317721 1786.030940,1756.014993 1782.094717,1755.111315 1778.236715,1753.676913 1774.783739,1750.963889"/>
    <poly id="1024448927" type="landuse.grass" color="194,194,130" fill="1" layer="-3.00" shape="1803.815800,1739.090309 1819.304543,1733.199100 1818.911852,1737.005706 1817.953879,1740.158919 1816.052675,1743.527652 1814.209929,1746.376386 1812.593291,1747.566268 1811.936655,1745.492109 1807.502543,1747.195741 1803.815800,1739.090309"/>
    <poly id="1024448928" type="historic.monument" color="128,255,128" fill="1" layer="-1.00" shape="1796.849150,1751.379597 1793.153459,1743.761817 1802.657414,1739.834044 1806.222901,1747.615739 1796.849150,1751.379597"/>
    <poly id="1026896436" type="highway.pedestrian" color="white" fill="0" layer="0.00" shape="5491.928978,2870.445714 5487.258064,2852.320081 5474.629057,2838.081600 5459.014578,2829.164598 5441.356348,2826.484700 5423.840476,2829.284434 5407.731769,2839.516522 5400.953717,2846.230726 5396.050959,2854.687304 5392.206225,2865.691442 5391.207746,2873.588893 5386.089047,2878.937102"/>
    <poly id="1026898819" type="landuse.grass" color="194,194,130" fill="1" layer="-3.00" shape="5436.342703,2749.636249 5436.383643,2747.441798 5420.766358,2747.582840 5421.203720,2764.520759 5424.051826,2764.463022 5423.738760,2749.778070 5436.342703,2749.636249"/>
    <poly id="1026898820" type="landuse.grass" color="194,194,130" fill="1" layer="-3.00" shape="5437.157064,2782.025317 5437.243472,2784.211057 5421.626235,2784.352094 5421.516154,2768.750713 5424.315358,2768.692063 5424.554395,2782.100636 5437.157064,2782.025317"/>
    <poly id="1026898821" type="landuse.grass" color="194,194,130" fill="1" layer="-3.00" shape="5443.783564,2781.339599 5443.742622,2783.534050 5459.359863,2783.393041 5458.809722,2767.783445 5456.119134,2767.788678 5456.387476,2781.197801 5443.783564,2781.339599"/>
    <poly id="1026898822" type="landuse.grass" color="194,194,130" fill="1" layer="-3.00" shape="5442.452731,2748.841111 5442.376310,2746.644470 5458.208764,2746.507472 5458.663358,2763.567675 5456.021670,2763.573821 5455.759819,2748.767864 5442.452731,2748.841111"/>
    <poly id="1026902501" type="historic.memorial" color="128,255,128" fill="1" layer="-1.00" shape="5633.714542,2822.624706 5633.878162,2821.197543 5635.669588,2821.142300 5638.072403,2821.353474 5640.774886,2821.758723 5643.301532,2822.149602 5644.712826,2822.541827 5645.871284,2822.851722 5649.044922,2823.698163 5651.520235,2824.742216 5654.031357,2825.964330 5656.551430,2827.230959 5658.619339,2828.611101 5659.487341,2829.281442 5660.522434,2829.910556 5659.369100,2830.897930 5658.460322,2830.315523 5656.905380,2829.233222 5654.959852,2828.110366 5653.441340,2827.172877 5651.537468,2826.438843 5649.490826,2825.491491 5646.795589,2824.698331 5644.625169,2824.092365 5641.838598,2823.474892 5638.824600,2822.986217 5635.992492,2822.711591 5633.714542,2822.624706"/>
    <poly id="1026902502" type="historic.memorial" color="128,255,128" fill="1" layer="-1.00" shape="5626.907135,2822.519763 5626.867701,2821.487939 5625.397365,2821.637875 5621.588590,2822.320668 5618.306081,2823.113072 5614.773895,2824.177988 5610.936509,2825.869163 5607.786219,2827.440126 5604.767678,2829.290722 5603.134501,2830.302403 5601.315970,2831.809536 5602.305529,2832.781491 5603.220616,2831.978141 5604.410582,2831.124490 5606.709998,2829.537640 5608.470524,2828.517250 5610.123676,2827.483769 5612.844108,2826.403695 5614.858506,2825.410220 5617.141368,2824.710020 5620.426360,2823.784619 5623.708662,2823.003299 5625.532946,2822.760190 5626.907135,2822.519763"/>
    <poly id="1026902503" type="historic.memorial" color="128,255,128" fill="1" layer="-1.00" shape="5587.028758,2854.514964 5585.763755,2854.147651 5586.700304,2851.670571 5587.789142,2848.896986 5589.405488,2846.166511 5591.927498,2842.089249 5593.941107,2839.565757 5594.961443,2838.365241 5596.003835,2839.127530 5593.632347,2841.954775 5591.605703,2845.176502 5589.930262,2847.928048 5588.080283,2851.119813 5587.028758,2854.514964"/>
    <poly id="1026902504" type="historic.memorial" color="128,255,128" fill="1" layer="-1.00" shape="5678.119324,2858.921182 5680.119389,2858.171364 5678.663863,2854.385698 5675.930039,2848.325502 5672.651886,2842.598837 5668.306503,2837.439851 5666.978370,2836.262001 5665.639213,2837.245904 5669.168137,2841.070293 5671.685047,2844.077520 5673.509843,2846.949864 5676.126206,2851.965690 5677.682948,2856.618030 5678.119324,2858.921182"/>
    <poly id="1026902505" type="historic.memorial" color="128,255,128" fill="1" layer="-1.00" shape="5586.939902,2888.095697 5588.330692,2887.489706 5589.784585,2891.364025 5591.602825,2895.112103 5593.990530,2898.227770 5596.006536,2900.815411 5598.876721,2903.241609 5597.506788,2904.302553 5596.214826,2902.759517 5593.933516,2900.233445 5592.076942,2898.014651 5590.523551,2895.801518 5589.319759,2893.727955 5587.781210,2890.195752 5586.939902,2888.095697"/>
    <poly id="1026902824" type="historic.memorial" color="128,255,128" fill="1" layer="-1.00" shape="5604.785371,2909.560629 5605.408706,2908.663137 5608.398263,2910.459610 5611.771726,2912.130209 5615.330182,2913.848612 5620.285481,2915.160707 5624.952342,2916.201331 5628.966990,2916.542386 5631.722696,2916.715803 5631.703862,2917.724364 5629.209941,2917.677793 5626.099875,2917.619716 5621.830065,2916.797158 5617.614743,2915.676271 5612.745757,2913.933397 5609.365825,2912.085286 5606.294096,2910.497930 5604.785371,2909.560629"/>
    <poly id="1026902825" type="historic.memorial" color="128,255,128" fill="1" layer="-1.00" shape="5638.263141,2917.492072 5638.195404,2916.404285 5641.706401,2915.948765 5645.660763,2914.803047 5650.285760,2913.370507 5653.813060,2911.518337 5658.232575,2909.039788 5661.163241,2906.655391 5662.235843,2905.799553 5663.180424,2906.560021 5660.521065,2908.561442 5656.708743,2911.006982 5652.429255,2913.321842 5648.020921,2915.201906 5644.018486,2916.302378 5640.849843,2917.285378 5638.263141,2917.492072"/>
    <poly id="1026902826" type="historic.memorial" color="128,255,128" fill="1" layer="-1.00" shape="5668.764763,2899.335837 5671.030128,2896.429015 5673.516660,2893.204803 5674.981250,2889.695416 5677.046517,2885.454422 5678.273128,2880.543634 5679.010527,2875.634795 5680.683963,2875.610616 5679.967471,2879.400062 5679.135325,2883.619740 5677.311298,2888.563718 5675.738091,2892.126510 5673.295335,2896.149801 5671.421536,2898.520675 5670.644456,2899.792249 5668.764763,2899.335837"/>
    <poly id="103176778" type="amenity.bank" color="237,199,199" fill="1" layer="-1.00" shape="3957.181322,4714.728677 3963.999064,4700.497617 3961.657036,4699.667020 3979.325181,4666.323865 3981.403312,4667.670654 3988.340013,4661.269136 4013.062633,4700.620383 4003.715963,4709.327603 4006.024390,4712.496914 3983.582149,4734.265500 3971.881063,4728.571589 3967.298433,4720.914280 3961.989223,4723.953407 3957.181322,4714.728677"/>
    <poly id="103176778#1" type="building.yes" color="255,230,230" fill="1" layer="-1.00" shape="3957.181322,4714.728677 3963.999064,4700.497617 3961.657036,4699.667020 3979.325181,4666.323865 3981.403312,4667.670654 3988.340013,4661.269136 4013.062633,4700.620383 4003.715963,4709.327603 4006.024390,4712.496914 3983.582149,4734.265500 3971.881063,4728.571589 3967.298433,4720.914280 3961.989223,4723.953407 3957.181322,4714.728677"/>
    <poly id="103176779" type="building.retail" color="255,230,230" fill="1" layer="-1.00" shape="4175.383781,4637.343822 4215.426994,4635.980647 4215.307660,4632.397370 4231.066390,4631.869511 4229.583686,4588.969016 4211.436449,4589.585583 4212.353852,4616.044820 4174.689031,4617.330201 4175.383781,4637.343822"/>
    <poly id="103176781" type="building.office" color="255,230,230" fill="1" layer="-1.00" shape="4044.982408,4597.184406 4044.158974,4589.896147 4042.424509,4583.732936 4040.332461,4577.862438 4036.897219,4571.102249 4033.217329,4565.401863 4028.793465,4560.785279 4023.542232,4556.474869 4018.024211,4552.835813 4026.230059,4534.971860 4032.277778,4538.532050 4037.889566,4541.862420 4042.830352,4546.034035 4047.288899,4550.363009 4050.988229,4555.542678 4054.419422,4560.939110 4057.385670,4566.615178 4059.564782,4572.010560 4061.118266,4577.383249 4062.854071,4584.001049 4063.501776,4590.742794 4063.385607,4597.004719 4044.982408,4597.184406"/>
    <poly id="103176783" type="building.yes" color="255,230,230" fill="1" layer="-1.00" shape="4030.842192,4699.774966 4085.857312,4788.769931 4047.952025,4830.995022 4052.443830,4836.688312 4037.314670,4852.860553 4032.688550,4847.552819 4008.025147,4873.060763 3993.143467,4859.547015 4012.771416,4838.668642 4009.834207,4835.121797 4013.319641,4831.261697 3993.981807,4812.764903 3987.568373,4818.910032 3979.983704,4810.675952 3986.980877,4801.537105 3983.626174,4798.348391 3993.810539,4786.663245 3997.817931,4789.997109 4004.330904,4783.232966 4012.810758,4791.195407 4008.969384,4795.259556 4026.753965,4812.064532 4030.969272,4807.353199 4034.953390,4810.886210 4065.428748,4780.031398 4061.885411,4773.302450 4056.148755,4777.763810 4016.891375,4716.224099 4030.842192,4699.774966"/>
    <poly id="1034066933" type="landuse.grass" color="194,194,130" fill="1" layer="-3.00" shape="5128.361807,2898.401879 5224.084809,2894.121128 5231.637107,2897.299717 5237.123753,2905.273709 5244.357227,2909.810056 5255.722634,2912.594092 5269.991407,2914.977702 5284.135999,2916.150538 5296.190897,2915.011607 5307.958256,2912.503634 5322.196060,2908.678046 5332.192289,2903.564900 5338.587408,2895.346783 5343.696222,2891.051630 5354.525752,2890.045121 5366.404570,2889.956235 5373.532383,2891.763308 5379.361608,2897.626157 5382.892221,2904.510481 5387.156050,2912.472830 5391.453984,2918.606471 5387.581728,2922.170757 5393.045518,2931.363969 5392.022885,2937.409451 5385.737855,2947.591983 5354.791600,3006.407515 5287.967335,3135.155700 5279.831150,3138.640510 5260.601977,3141.009373 5245.799377,3134.214287 5163.566432,3085.107532 5153.390076,3075.749010 5145.344210,3065.986718 5139.928190,3058.424299 5137.449494,3048.111621 5135.661404,3033.288347 5133.892371,3010.615886 5132.299774,2993.700828 5131.497061,2975.348100 5129.244009,2957.123569 5128.195995,2936.183020 5125.260833,2909.408853 5125.707880,2902.742855 5126.671188,2900.399288 5128.361807,2898.401879"/>
    <poly id="1034066933#1" type="leisure.park" color="207,245,201" fill="1" layer="-2.00" shape="5128.361807,2898.401879 5224.084809,2894.121128 5231.637107,2897.299717 5237.123753,2905.273709 5244.357227,2909.810056 5255.722634,2912.594092 5269.991407,2914.977702 5284.135999,2916.150538 5296.190897,2915.011607 5307.958256,2912.503634 5322.196060,2908.678046 5332.192289,2903.564900 5338.587408,2895.346783 5343.696222,2891.051630 5354.525752,2890.045121 5366.404570,2889.956235 5373.532383,2891.763308 5379.361608,2897.626157 5382.892221,2904.510481 5387.156050,2912.472830 5391.453984,2918.606471 5387.581728,2922.170757 5393.045518,2931.363969 5392.022885,2937.409451 5385.737855,2947.591983 5354.791600,3006.407515 5287.967335,3135.155700 5279.831150,3138.640510 5260.601977,3141.009373 5245.799377,3134.214287 5163.566432,3085.107532 5153.390076,3075.749010 5145.344210,3065.986718 5139.928190,3058.424299 5137.449494,3048.111621 5135.661404,3033.288347 5133.892371,3010.615886 5132.299774,2993.700828 5131.497061,2975.348100 5129.244009,2957.123569 5128.195995,2936.183020 5125.260833,2909.408853 5125.707880,2902.742855 5126.671188,2900.399288 5128.361807,2898.401879"/>
    <poly id="1034067275" type="landuse.grass" color="194,194,130" fill="1" layer="-3.00" shape="5524.056966,2866.311195 5524.210249,2858.098625 5545.209780,2857.880807 5546.104920,2849.759692 5549.030680,2838.727352 5555.075730,2826.212153 5565.247591,2811.700733 5571.862604,2804.817266 5579.537871,2798.264031 5588.087211,2792.580815 5596.446500,2788.169055 5611.948953,2782.648933 5624.692540,2780.791446 5623.847815,2751.628061 5623.813848,2733.012425 5615.584737,2733.069425 5614.992899,2710.795766 5600.223528,2711.107622 5599.680984,2690.908148 5567.004914,2692.404660 5556.467693,2692.939706 5525.375190,2750.078032 5489.756025,2812.830638 5489.799435,2819.417095 5495.714244,2825.935731 5502.510054,2837.670591 5506.346521,2846.511967 5509.577202,2856.883125 5510.973744,2861.210926 5513.196456,2864.256973 5515.210094,2865.924337 5517.168245,2866.371101 5524.056966,2866.311195"/>
    <poly id="1034067275#1" type="leisure.park" color="207,245,201" fill="1" layer="-2.00" shape="5524.056966,2866.311195 5524.210249,2858.098625 5545.209780,2857.880807 5546.104920,2849.759692 5549.030680,2838.727352 5555.075730,2826.212153 5565.247591,2811.700733 5571.862604,2804.817266 5579.537871,2798.264031 5588.087211,2792.580815 5596.446500,2788.169055 5611.948953,2782.648933 5624.692540,2780.791446 5623.847815,2751.628061 5623.813848,2733.012425 5615.584737,2733.069425 5614.992899,2710.795766 5600.223528,2711.107622 5599.680984,2690.908148 5567.004914,2692.404660 5556.467693,2692.939706 5525.375190,2750.078032 5489.756025,2812.830638 5489.799435,2819.417095 5495.714244,2825.935731 5502.510054,2837.670591 5506.346521,2846.511967 5509.577202,2856.883125 5510.973744,2861.210926 5513.196456,2864.256973 5515.210094,2865.924337 5517.168245,2866.371101 5524.056966,2866.311195"/>
    <poly id="1034067339" type="leisure.park" color="207,245,201" fill="1" layer="-2.00" shape="5572.160077,2661.002861 5596.922627,2615.409929 5604.643311,2610.099287 5616.845285,2608.963404 5704.441451,2656.510319 5572.160077,2661.002861"/>
    <poly id="1034067799" type="landuse.grass" color="194,194,130" fill="1" layer="-3.00" shape="5752.616817,2857.053287 5744.937337,2857.020676 5743.828151,2856.168430 5743.778611,2851.488804 5720.648256,2852.121027 5719.801715,2845.064988 5717.050941,2837.818160 5712.430920,2828.507500 5707.494713,2820.410502 5701.396985,2812.690941 5692.155675,2803.038969 5684.246882,2796.948636 5676.891980,2792.631481 5668.089603,2788.287297 5660.547159,2785.629694 5650.703623,2782.552168 5641.514685,2781.094483 5633.178439,2781.127294 5632.703347,2762.558853 5631.812993,2732.696136 5639.707922,2732.721603 5639.869309,2709.408743 5654.698870,2709.541539 5654.325428,2689.722169 5747.279477,2687.145571 5754.512793,2710.541165 5756.501575,2756.478368 5758.602070,2818.427246 5755.804401,2846.680006 5755.188407,2852.943721 5754.115728,2855.373899 5752.616817,2857.053287"/>
    <poly id="1034067799#1" type="leisure.park" color="207,245,201" fill="1" layer="-2.00" shape="5752.616817,2857.053287 5744.937337,2857.020676 5743.828151,2856.168430 5743.778611,2851.488804 5720.648256,2852.121027 5719.801715,2845.064988 5717.050941,2837.818160 5712.430920,2828.507500 5707.494713,2820.410502 5701.396985,2812.690941 5692.155675,2803.038969 5684.246882,2796.948636 5676.891980,2792.631481 5668.089603,2788.287297 5660.547159,2785.629694 5650.703623,2782.552168 5641.514685,2781.094483 5633.178439,2781.127294 5632.703347,2762.558853 5631.812993,2732.696136 5639.707922,2732.721603 5639.869309,2709.408743 5654.698870,2709.541539 5654.325428,2689.722169 5747.279477,2687.145571 5754.512793,2710.541165 5756.501575,2756.478368 5758.602070,2818.427246 5755.804401,2846.680006 5755.188407,2852.943721 5754.115728,2855.373899 5752.616817,2857.053287"/>
    <poly id="1034068002" type="landuse.grass" color="194,194,130" fill="1" layer="-3.00" shape="5524.679840,2880.114989 5524.640549,2887.985992 5537.089735,2887.741620 5546.566805,2887.386347 5547.913150,2893.354086 5549.840299,2899.654189 5551.869027,2906.277710 5556.440440,2915.576306 5561.424605,2922.155219 5567.743366,2930.089484 5573.507330,2935.773830 5581.735712,2942.036364 5589.027933,2946.562947 5598.051372,2950.589686 5606.117754,2953.999865 5615.167051,2956.641231 5622.695465,2957.424855 5631.575750,2957.590685 5632.228249,2981.850055 5633.223764,3005.029310 5625.417661,3004.972231 5625.751301,3028.493908 5611.497924,3028.438396 5611.820247,3048.899859 5571.449519,3049.664988 5530.729624,2979.511575 5499.770237,2932.579188 5497.733537,2927.430093 5498.420155,2923.141171 5501.427431,2917.698167 5507.099660,2904.710340 5509.906830,2894.263389 5511.658043,2886.402163 5512.288702,2884.063500 5514.606354,2882.022409 5517.411772,2880.056944 5524.679840,2880.114989"/>
    <poly id="1034068002#1" type="leisure.park" color="207,245,201" fill="1" layer="-2.00" shape="5524.679840,2880.114989 5524.640549,2887.985992 5537.089735,2887.741620 5546.566805,2887.386347 5547.913150,2893.354086 5549.840299,2899.654189 5551.869027,2906.277710 5556.440440,2915.576306 5561.424605,2922.155219 5567.743366,2930.089484 5573.507330,2935.773830 5581.735712,2942.036364 5589.027933,2946.562947 5598.051372,2950.589686 5606.117754,2953.999865 5615.167051,2956.641231 5622.695465,2957.424855 5631.575750,2957.590685 5632.228249,2981.850055 5633.223764,3005.029310 5625.417661,3004.972231 5625.751301,3028.493908 5611.497924,3028.438396 5611.820247,3048.899859 5571.449519,3049.664988 5530.729624,2979.511575 5499.770237,2932.579188 5497.733537,2927.430093 5498.420155,2923.141171 5501.427431,2917.698167 5507.099660,2904.710340 5509.906830,2894.263389 5511.658043,2886.402163 5512.288702,2884.063500 5514.606354,2882.022409 5517.411772,2880.056944 5524.679840,2880.114989"/>