<?xml version="1.0" encoding="UTF-8"?>

<!-- generated on 2025-03-21 22:54:44.806711 by osmWebWizard.py v1_22_0+0002-63e50f52594
<configuration>
    <net-file value="C:\Windows\System32\2025-03-21-22-51-26\osm.net.xml.gz"/>
    <output-trip-file value="C:\Windows\System32\2025-03-21-22-51-26\osm.passenger.trips.xml"/>
    <route-file value="C:\Windows\System32\2025-03-21-22-51-26\osm.passenger.rou.xml"/>
    <prefix value="veh"/>
    <trip-attributes value="departLane=&quot;best&quot;"/>
    <fringe-start-attributes value="departSpeed=&quot;max&quot;"/>
    <vehicle-class value="passenger"/>
    <lanes value="True"/>
    <fringe-factor value="5"/>
    <allow-fringe.min-length value="1000.0"/>
    <via-edge-types value="highway.motorway,highway.motorway_link,highway.trunk_link,highway.primary_link,highway.secondary_link,highway.tertiary_link"/>
    <min-distance value="300.0"/>
    <min-distance.fringe value="10.0"/>
    <remove-loops value="True"/>
    <validate value="True"/>
    <insertion-density value="12.0"/>
</configuration>
-->

<!-- generated on 2025-03-21 22:54:20 by Eclipse SUMO duarouter Version 1.22.0
<duarouterConfiguration xmlns:xsi="http://www.w3.org/2001/XMLSchema-instance" xsi:noNamespaceSchemaLocation="http://sumo.dlr.de/xsd/duarouterConfiguration.xsd">

    <input>
        <net-file value="C:\Windows\System32\2025-03-21-22-51-26\osm.net.xml.gz"/>
        <route-files value="C:\Windows\System32\2025-03-21-22-51-26\osm.passenger.trips.xml"/>
    </input>

    <output>
        <output-file value="C:\Windows\System32\2025-03-21-22-51-26\osm.passenger.trips.xml.tmp"/>
        <alternatives-output value="NUL"/>
        <write-trips value="true"/>
    </output>

    <processing>
        <remove-loops value="true"/>
    </processing>

    <time>
        <begin value="0.0"/>
        <end value="3600.0"/>
    </time>

    <report>
        <no-warnings value="true"/>
        <ignore-errors value="true"/>
        <no-step-log value="true"/>
    </report>

</duarouterConfiguration>
-->

<routes xmlns:xsi="http://www.w3.org/2001/XMLSchema-instance" xsi:noNamespaceSchemaLocation="http://sumo.dlr.de/xsd/routes_file.xsd">
    <vType id="veh_passenger" vClass="passenger"/>
    <trip id="veh0" type="veh_passenger" depart="0.00" departLane="best" departSpeed="max" from="24577488" to="-1072954053#1"/>
    <trip id="veh2" type="veh_passenger" depart="0.86" departLane="best" from="370955224#0" to="28616711#1"/>
    <trip id="veh3" type="veh_passenger" depart="1.29" departLane="best" from="708474897#2" to="1153925787"/>
    <trip id="veh4" type="veh_passenger" depart="1.72" departLane="best" from="1072967422" to="-1072978659#0"/>
    <trip id="veh5" type="veh_passenger" depart="2.15" departLane="best" from="-24577415#1" to="1236565126"/>
    <trip id="veh6" type="veh_passenger" depart="2.58" departLane="best" departSpeed="max" from="-1071423067" to="-32905321#2"/>
    <trip id="veh7" type="veh_passenger" depart="3.01" departLane="best" from="24583584#0" to="130987222#3-AddedOffRampEdge"/>
    <trip id="veh8" type="veh_passenger" depart="3.44" departLane="best" from="-24577418#1" to="23133600#1"/>
    <trip id="veh9" type="veh_passenger" depart="3.87" departLane="best" from="570413587#0" to="-1053580364"/>
    <trip id="veh10" type="veh_passenger" depart="4.30" departLane="best" from="563791811#6" to="338959812#9"/>
    <trip id="veh11" type="veh_passenger" depart="4.73" departLane="best" from="-712992080#0" to="-24577409#4"/>
    <trip id="veh12" type="veh_passenger" depart="5.16" departLane="best" from="783084113#1" to="1063253380#0"/>
    <trip id="veh13" type="veh_passenger" depart="5.59" departLane="best" departSpeed="max" from="-1122026496#1" to="-1203086271"/>
    <trip id="veh14" type="veh_passenger" depart="6.02" departLane="best" departSpeed="max" from="682964514#0" to="24576724#0"/>
    <trip id="veh15" type="veh_passenger" depart="6.45" departLane="best" from="563974733#1" to="37222900#0"/>
    <trip id="veh16" type="veh_passenger" depart="6.88" departLane="best" from="1253176512#1-AddedOnRampEdge" to="80950052#1"/>
    <trip id="veh17" type="veh_passenger" depart="7.31" departLane="best" from="80950037#6" to="1329173707#2"/>
    <trip id="veh18" type="veh_passenger" depart="7.74" departLane="best" from="696302916#1" to="176492658#7"/>
    <trip id="veh19" type="veh_passenger" depart="8.17" departLane="best" from="296963059#4" to="112102188#0"/>
    <trip id="veh20" type="veh_passenger" depart="8.60" departLane="best" from="24583593#2" to="782774057#0"/>
    <trip id="veh21" type="veh_passenger" depart="9.03" departLane="best" from="-1121186669#0" to="-488544864#0"/>
    <trip id="veh22" type="veh_passenger" depart="9.46" departLane="best" departSpeed="max" from="-1122038573#1" to="-743312249"/>
    <trip id="veh23" type="veh_passenger" depart="9.89" departLane="best" from="-24577418#5" to="1074749102#1"/>
    <trip id="veh24" type="veh_passenger" depart="10.32" departLane="best" from="-80926768#0" to="-370902437"/>
    <trip id="veh25" type="veh_passenger" depart="10.75" departLane="best" from="-370672197#2" to="77355800#1"/>
    <trip id="veh26" type="veh_passenger" depart="11.17" departLane="best" from="24583488#7" to="24577361#3"/>
    <trip id="veh27" type="veh_passenger" depart="11.60" departLane="best" from="-1253499279#1" to="37222901#4"/>
    <trip id="veh28" type="veh_passenger" depart="12.03" departLane="best" departSpeed="max" from="-1236568327" to="1117097084"/>
    <trip id="veh29" type="veh_passenger" depart="12.46" departLane="best" from="995113417#4" to="24584375#2"/>
    <trip id="veh30" type="veh_passenger" depart="12.89" departLane="best" from="130987222#0-AddedOffRampEdge" to="293530130#0"/>
    <trip id="veh32" type="veh_passenger" depart="13.75" departLane="best" from="-24583768#2" to="-1074157520#1"/>
    <trip id="veh33" type="veh_passenger" depart="14.18" departLane="best" from="-677591367#1" to="-708786616#0"/>
    <trip id="veh34" type="veh_passenger" depart="14.61" departLane="best" from="-235103413#1" to="-775960563#1"/>
    <trip id="veh35" type="veh_passenger" depart="15.04" departLane="best" departSpeed="max" from="70237512#0" to="-103176793#3"/>
    <trip id="veh36" type="veh_passenger" depart="15.47" departLane="best" from="24584374#1" to="-1121142413#4"/>
    <trip id="veh37" type="veh_passenger" depart="15.90" departLane="best" from="732001897#3" to="1181930216#1"/>
    <trip id="veh38" type="veh_passenger" depart="16.33" departLane="best" from="370534204#1" to="-663067894#5"/>
    <trip id="veh40" type="veh_passenger" depart="17.19" departLane="best" departSpeed="max" from="164934903#0" to="715742822#1"/>
    <trip id="veh41" type="veh_passenger" depart="17.62" departLane="best" from="1057067125" to="-370955249#3"/>
    <trip id="veh42" type="veh_passenger" depart="18.05" departLane="best" from="-998790356#8" to="1241992401"/>
    <trip id="veh43" type="veh_passenger" depart="18.48" departLane="best" from="-1122026488" to="-112102203"/>
    <trip id="veh44" type="veh_passenger" depart="18.91" departLane="best" departSpeed="max" from="-1122220363" to="24583332#2"/>
    <trip id="veh45" type="veh_passenger" depart="19.34" departLane="best" from="537797267#3" to="1122215537"/>
    <trip id="veh46" type="veh_passenger" depart="19.77" departLane="best" departSpeed="max" from="-1120299304" to="112102188#1"/>
    <trip id="veh47" type="veh_passenger" depart="20.20" departLane="best" from="998790352#0" to="-1277942000#0"/>
    <trip id="veh48" type="veh_passenger" depart="20.63" departLane="best" from="80950012#3" to="700293877#0"/>
    <trip id="veh49" type="veh_passenger" depart="21.06" departLane="best" departSpeed="max" from="-1057067166" to="370955227"/>
    <trip id="veh50" type="veh_passenger" depart="21.49" departLane="best" from="28103660#4" to="1304911906"/>
    <trip id="veh51" type="veh_passenger" depart="21.92" departLane="best" from="-370672197#0" to="24584377#0"/>
    <trip id="veh52" type="veh_passenger" depart="22.35" departLane="best" departSpeed="max" from="-1122230049#1" to="1123521082"/>
    <trip id="veh53" type="veh_passenger" depart="22.78" departLane="best" from="112102241#8" to="782774057#0"/>
    <trip id="veh54" type="veh_passenger" depart="23.21" departLane="best" from="70220645#1-AddedOnRampEdge" to="-705326122#1"/>
    <trip id="veh55" type="veh_passenger" depart="23.64" departLane="best" from="1187268480#1" to="-24584511#9"/>
    <trip id="veh56" type="veh_passenger" depart="24.07" departLane="best" from="730290864#0" to="70258948#7"/>
    <trip id="veh57" type="veh_passenger" depart="24.50" departLane="best" from="-48964573#0" to="-24584374#1"/>
    <trip id="veh58" type="veh_passenger" depart="24.93" departLane="best" from="-235103610#4" to="-24577361#2"/>
    <trip id="veh59" type="veh_passenger" depart="25.36" departLane="best" from="44188368#3" to="1306148821"/>
    <trip id="veh60" type="veh_passenger" depart="25.79" departLane="best" from="44352050#2" to="1283524753"/>
    <trip id="veh61" type="veh_passenger" depart="26.22" departLane="best" from="-103176793#3" to="1057067147"/>
    <trip id="veh62" type="veh_passenger" depart="26.65" departLane="best" from="-1063253367" to="766036526#6"/>
    <trip id="veh63" type="veh_passenger" depart="27.08" departLane="best" from="70258948#7" to="664985710#10"/>
    <trip id="veh64" type="veh_passenger" depart="27.51" departLane="best" departSpeed="max" from="-612734124#2" to="-1121142413#3"/>
    <trip id="veh65" type="veh_passenger" depart="27.94" departLane="best" from="70258948#0" to="777664924"/>
    <trip id="veh66" type="veh_passenger" depart="28.37" departLane="best" from="-1122026475#0" to="1187268510#0"/>
    <trip id="veh67" type="veh_passenger" depart="28.80" departLane="best" from="-112102228" to="44351928#2"/>
    <trip id="veh68" type="veh_passenger" depart="29.23" departLane="best" from="-44351577#2" to="-163795302#1"/>
    <trip id="veh69" type="veh_passenger" depart="29.66" departLane="best" departSpeed="max" from="1122230048" to="1320704572"/>
    <trip id="veh70" type="veh_passenger" depart="30.09" departLane="best" from="-370546796" to="70258960#1"/>
    <trip id="veh71" type="veh_passenger" depart="30.52" departLane="best" from="1072978656#0" to="-1075051019#1"/>
    <trip id="veh72" type="veh_passenger" depart="30.95" departLane="best" from="1255235630" to="37222901#0"/>
    <trip id="veh73" type="veh_passenger" depart="31.38" departLane="best" from="-169196741#1" to="-998790356#8"/>
    <trip id="veh74" type="veh_passenger" depart="31.81" departLane="best" from="998197439#0" to="24584418#2"/>
    <trip id="veh75" type="veh_passenger" depart="32.24" departLane="best" from="1075957980#2" to="1253169114"/>
    <trip id="veh76" type="veh_passenger" depart="32.66" departLane="best" departSpeed="max" from="-1123830778#1" to="-44277694#5"/>
    <trip id="veh77" type="veh_passenger" depart="33.09" departLane="best" from="-707566695#1" to="23133486#2"/>
    <trip id="veh78" type="veh_passenger" depart="33.52" departLane="best" departSpeed="max" from="-24583769#3" to="-370955251#3"/>
    <trip id="veh79" type="veh_passenger" depart="33.95" departLane="best" from="-112102238#0" to="24583488#9"/>
    <trip id="veh80" type="veh_passenger" depart="34.38" departLane="best" from="-24583768#2" to="717907817#0"/>
    <trip id="veh81" type="veh_passenger" depart="34.81" departLane="best" departSpeed="max" from="686836561#0" to="-1122038574#2"/>
    <trip id="veh82" type="veh_passenger" depart="35.24" departLane="best" from="-24584420#9" to="28121513#3"/>
    <trip id="veh83" type="veh_passenger" depart="35.67" departLane="best" from="-24577118#10" to="-164910162#0"/>
    <trip id="veh84" type="veh_passenger" depart="36.10" departLane="best" from="77339656#12" to="169196743#2"/>
    <trip id="veh85" type="veh_passenger" depart="36.53" departLane="best" from="1122220362#0" to="553596950"/>
    <trip id="veh86" type="veh_passenger" depart="36.96" departLane="best" from="563974735#10" to="-291266017#4"/>
    <trip id="veh87" type="veh_passenger" depart="37.39" departLane="best" departSpeed="max" from="-1122028509#1" to="1053851211#3"/>
    <trip id="veh88" type="veh_passenger" depart="37.82" departLane="best" departSpeed="max" from="1072978659#0" to="1184940963#1"/>
    <trip id="veh89" type="veh_passenger" depart="38.25" departLane="best" from="370672197#7" to="28211431#0"/>
    <trip id="veh90" type="veh_passenger" depart="38.68" departLane="best" from="973071397-AddedOnRampEdge" to="-1205136335#2"/>
    <trip id="veh91" type="veh_passenger" depart="39.11" departLane="best" departSpeed="max" from="1057069136" to="1066619122#1"/>
    <trip id="veh92" type="veh_passenger" depart="39.54" departLane="best" from="696302916#1" to="-686644028#0"/>
    <trip id="veh93" type="veh_passenger" depart="39.97" departLane="best" from="-163193280#3" to="1138292925"/>
    <trip id="veh94" type="veh_passenger" depart="40.40" departLane="best" from="-1072967421#1" to="74846211#4"/>
    <trip id="veh95" type="veh_passenger" depart="40.83" departLane="best" departSpeed="max" from="-287667958" to="752137328#0"/>
    <trip id="veh96" type="veh_passenger" depart="41.26" departLane="best" from="111695525#0" to="700293879#1"/>
    <trip id="veh97" type="veh_passenger" depart="41.69" departLane="best" from="1296316291" to="-112102221#1"/>
    <trip id="veh98" type="veh_passenger" depart="42.12" departLane="best" from="998790358#8" to="678397107#0"/>
    <trip id="veh99" type="veh_passenger" depart="42.55" departLane="best" from="80950002" to="760480737"/>
    <trip id="veh100" type="veh_passenger" depart="42.98" departLane="best" departSpeed="max" from="682964514#0" to="-24583592#5"/>
    <trip id="veh101" type="veh_passenger" depart="43.41" departLane="best" from="1149112707#0" to="-370955223#4"/>
    <trip id="veh102" type="veh_passenger" depart="43.84" departLane="best" departSpeed="max" from="1057067155#0" to="-1121186660#2"/>
    <trip id="veh103" type="veh_passenger" depart="44.27" departLane="best" from="-80950052#1" to="985796730#1"/>
    <trip id="veh104" type="veh_passenger" depart="44.70" departLane="best" from="370546798" to="553590478#1"/>
    <trip id="veh105" type="veh_passenger" depart="45.13" departLane="best" from="1121139430#0" to="1122215538"/>
    <trip id="veh106" type="veh_passenger" depart="45.56" departLane="best" from="783084113#1" to="998197439#0-AddedOnRampEdge"/>
    <trip id="veh107" type="veh_passenger" depart="45.99" departLane="best" from="-1307655969#2" to="-370955221#2"/>
    <trip id="veh108" type="veh_passenger" depart="46.42" departLane="best" from="-1201230321" to="-80926778#8"/>
    <trip id="veh109" type="veh_passenger" depart="46.85" departLane="best" from="80949994#3" to="202678360"/>
    <trip id="veh110" type="veh_passenger" depart="47.28" departLane="best" from="-1271156421#3" to="423618455#4"/>
    <trip id="veh111" type="veh_passenger" depart="47.71" departLane="best" from="-1075257702#1" to="202800240#5"/>
    <trip id="veh112" type="veh_passenger" depart="48.14" departLane="best" from="1187268487" to="694445112#1"/>
    <trip id="veh113" type="veh_passenger" depart="48.57" departLane="best" departSpeed="max" from="-1234918800" to="80499762#16"/>
    <trip id="veh114" type="veh_passenger" depart="49.00" departLane="best" from="-1121186670" to="28121486#2"/>
    <trip id="veh115" type="veh_passenger" depart="49.43" departLane="best" from="80958874#6" to="28211431#9"/>
    <trip id="veh117" type="veh_passenger" depart="50.29" departLane="best" from="708281617#5" to="-663067894#1"/>
    <trip id="veh118" type="veh_passenger" depart="50.72" departLane="best" from="176492654#10" to="-24577417#3"/>
    <trip id="veh119" type="veh_passenger" depart="51.15" departLane="best" from="-1072958464#0" to="202800240#4"/>
    <trip id="veh120" type="veh_passenger" depart="51.58" departLane="best" departSpeed="max" from="1236504893" to="77349485#4"/>
    <trip id="veh121" type="veh_passenger" depart="52.01" departLane="best" from="-169221589#0" to="370904810#0"/>
    <trip id="veh122" type="veh_passenger" depart="52.44" departLane="best" from="-24584424#3" to="1121142414"/>
    <trip id="veh123" type="veh_passenger" depart="52.87" departLane="best" from="24617972#1" to="-80950012#2"/>
    <trip id="veh124" type="veh_passenger" depart="53.30" departLane="best" departSpeed="max" from="-677591367#2" to="44277690#5"/>
    <trip id="veh125" type="veh_passenger" depart="53.73" departLane="best" from="-112102241#4" to="118011777#0"/>
    <trip id="veh126" type="veh_passenger" depart="54.15" departLane="best" from="-998790358#10" to="998790353#3"/>
    <trip id="veh127" type="veh_passenger" depart="54.58" departLane="best" from="-112102244#0" to="-370955222#2"/>
    <trip id="veh128" type="veh_passenger" depart="55.01" departLane="best" from="370546798" to="77349464#0"/>
    <trip id="veh129" type="veh_passenger" depart="55.44" departLane="best" from="70258954#2" to="707188916#4"/>
    <trip id="veh130" type="veh_passenger" depart="55.87" departLane="best" from="-80678182#2" to="-24577416#5"/>
    <trip id="veh131" type="veh_passenger" depart="56.30" departLane="best" from="662886376#0" to="370533502#7"/>
    <trip id="veh132" type="veh_passenger" depart="56.73" departLane="best" from="24537423#6" to="993539154#1"/>
    <trip id="veh133" type="veh_passenger" depart="57.16" departLane="best" from="24583768#2" to="-1057055330"/>
    <trip id="veh134" type="veh_passenger" depart="57.59" departLane="best" from="582776170#0" to="80950010#4"/>
    <trip id="veh135" type="veh_passenger" depart="58.02" departLane="best" from="24584409#1" to="77355810#2"/>
    <trip id="veh136" type="veh_passenger" depart="58.45" departLane="best" from="1149112707#0" to="-1306567320#0"/>
    <trip id="veh138" type="veh_passenger" depart="59.31" departLane="best" departSpeed="max" from="-370902454#2" to="24576760#0"/>
    <trip id="veh139" type="veh_passenger" depart="59.74" departLane="best" from="-359711991#2" to="370534204#1"/>
    <trip id="veh140" type="veh_passenger" depart="60.17" departLane="best" from="-24577417#1" to="706854224#0"/>
    <trip id="veh141" type="veh_passenger" depart="60.60" departLane="best" from="116046168#0" to="717907817#0"/>
    <trip id="veh142" type="veh_passenger" depart="61.03" departLane="best" from="682964502" to="-1187607311#1"/>
    <trip id="veh143" type="veh_passenger" depart="61.46" departLane="best" departSpeed="max" from="1072978659#0" to="-739750545#0"/>
    <trip id="veh144" type="veh_passenger" depart="61.89" departLane="best" departSpeed="max" from="-1053851211#12" to="447141155#3"/>
    <trip id="veh145" type="veh_passenger" depart="62.32" departLane="best" from="24577480#0" to="-700293877#0"/>
    <trip id="veh146" type="veh_passenger" depart="62.75" departLane="best" from="370955247#1" to="1329173707#0"/>
    <trip id="veh147" type="veh_passenger" depart="63.18" departLane="best" from="1074715751#0" to="-1057067133"/>
    <trip id="veh148" type="veh_passenger" depart="63.61" departLane="best" departSpeed="max" from="-1121139433" to="708281616#11"/>
    <trip id="veh149" type="veh_passenger" depart="64.04" departLane="best" from="715743299#1" to="1312526361#2"/>
    <trip id="veh150" type="veh_passenger" depart="64.47" departLane="best" from="663067894#0" to="202800238#2"/>
    <trip id="veh151" type="veh_passenger" depart="64.90" departLane="best" departSpeed="max" from="-1187607313#1" to="-163193933#3"/>
    <trip id="veh152" type="veh_passenger" depart="65.33" departLane="best" departSpeed="max" from="-612734126#2" to="716015301#0"/>
    <trip id="veh153" type="veh_passenger" depart="65.76" departLane="best" from="555197213#0" to="700293876#1"/>
    <trip id="veh154" type="veh_passenger" depart="66.19" departLane="best" from="710522945#0" to="370902443#1"/>
    <trip id="veh155" type="veh_passenger" depart="66.62" departLane="best" departSpeed="max" from="-287667958" to="-1236550196"/>
    <trip id="veh156" type="veh_passenger" depart="67.05" departLane="best" from="446922582#6" to="708281618#1"/>
    <trip id="veh157" type="veh_passenger" depart="67.48" departLane="best" from="1063253371#0" to="24577418#6"/>
    <trip id="veh158" type="veh_passenger" depart="67.91" departLane="best" departSpeed="max" from="-1190555368" to="76834907#1"/>
    <trip id="veh159" type="veh_passenger" depart="68.34" departLane="best" from="697766793#2" to="-80950089#3"/>
    <trip id="veh160" type="veh_passenger" depart="68.77" departLane="best" from="570859657#1" to="708281612#0"/>
    <trip id="veh161" type="veh_passenger" depart="69.20" departLane="best" departSpeed="max" from="-1071416787" to="37222919#2"/>
    <trip id="veh162" type="veh_passenger" depart="69.63" departLane="best" from="-700293874#0" to="76834907#1"/>
    <trip id="veh163" type="veh_passenger" depart="70.06" departLane="best" from="562479736#5-AddedOnRampEdge" to="700313696#1"/>
    <trip id="veh164" type="veh_passenger" depart="70.49" departLane="best" from="570859657#1" to="-708474904#1"/>
    <trip id="veh165" type="veh_passenger" depart="70.92" departLane="best" departSpeed="max" from="464265930#0" to="-1253499279#0"/>
    <trip id="veh166" type="veh_passenger" depart="71.35" departLane="best" departSpeed="max" from="-24582921#10" to="612734124#1"/>
    <trip id="veh167" type="veh_passenger" depart="71.78" departLane="best" departSpeed="max" from="1122023977#0" to="80950098#1"/>
    <trip id="veh168" type="veh_passenger" depart="72.21" departLane="best" from="554798489#0" to="-44351927"/>
    <trip id="veh169" type="veh_passenger" depart="72.64" departLane="best" from="-1063253381#1" to="-292194568"/>
    <trip id="veh170" type="veh_passenger" depart="73.07" departLane="best" from="696303131" to="28211431#7"/>
    <trip id="veh171" type="veh_passenger" depart="73.50" departLane="best" from="-80926778#12" to="-74846308"/>
    <trip id="veh172" type="veh_passenger" depart="73.93" departLane="best" from="24583327#11" to="1122023977#3"/>
    <trip id="veh174" type="veh_passenger" depart="74.79" departLane="best" from="77349527" to="-1300354437#1"/>
    <trip id="veh175" type="veh_passenger" depart="75.22" departLane="best" from="-80950010#5" to="-24584511#7"/>
    <trip id="veh176" type="veh_passenger" depart="75.64" departLane="best" from="80499762#8" to="-707566695#1"/>
    <trip id="veh177" type="veh_passenger" depart="76.07" departLane="best" departSpeed="max" from="-1122220358#1" to="1123521082"/>
    <trip id="veh178" type="veh_passenger" depart="76.50" departLane="best" from="370672197#1" to="1005501931"/>
    <trip id="veh180" type="veh_passenger" depart="77.36" departLane="best" from="-993539947" to="80958874#4"/>
    <trip id="veh181" type="veh_passenger" depart="77.79" departLane="best" from="-292194572#0" to="370546887#2-AddedOffRampEdge"/>
    <trip id="veh182" type="veh_passenger" depart="78.22" departLane="best" from="-1042816605#3" to="758753883"/>
    <trip id="veh183" type="veh_passenger" depart="78.65" departLane="best" from="1253534997#0" to="370955223#4"/>
    <trip id="veh184" type="veh_passenger" depart="79.08" departLane="best" from="370955249#0" to="28121614#3"/>
    <trip id="veh185" type="veh_passenger" depart="79.51" departLane="best" from="-777743097#0" to="-1122030701"/>
    <trip id="veh186" type="veh_passenger" depart="79.94" departLane="best" from="24584414#3" to="1057069157"/>
    <trip id="veh187" type="veh_passenger" depart="80.37" departLane="best" from="-663067892#2" to="686696028#0"/>
    <trip id="veh188" type="veh_passenger" depart="80.80" departLane="best" from="370533501#3" to="-80950016#0"/>
    <trip id="veh189" type="veh_passenger" depart="81.23" departLane="best" departSpeed="max" from="-615556516" to="1122026493#2"/>
    <trip id="veh190" type="veh_passenger" depart="81.66" departLane="best" departSpeed="max" from="1057069136" to="-80926777#4"/>
    <trip id="veh191" type="veh_passenger" depart="82.09" departLane="best" departSpeed="max" from="-1131593684" to="1122215531#3"/>
    <trip id="veh192" type="veh_passenger" depart="82.52" departLane="best" from="28121614#4" to="287667958"/>
    <trip id="veh193" type="veh_passenger" depart="82.95" departLane="best" from="712992080#5" to="24577401"/>
    <trip id="veh194" type="veh_passenger" depart="83.38" departLane="best" departSpeed="max" from="-542802206" to="1320611453#1"/>
    <trip id="veh195" type="veh_passenger" depart="83.81" departLane="best" from="-103176793#2" to="777743096#1"/>
    <trip id="veh196" type="veh_passenger" depart="84.24" departLane="best" departSpeed="max" from="1074774614" to="202678196#6"/>
    <trip id="veh197" type="veh_passenger" depart="84.67" departLane="best" from="24583771#1" to="1183653759#1"/>
    <trip id="veh198" type="veh_passenger" depart="85.10" departLane="best" from="111695524#11" to="-370955223#4"/>
    <trip id="veh199" type="veh_passenger" depart="85.53" departLane="best" from="1122230043#0" to="717046638#0"/>
    <trip id="veh200" type="veh_passenger" depart="85.96" departLane="best" from="555197213#0" to="-24584381#17"/>
    <trip id="veh201" type="veh_passenger" depart="86.39" departLane="best" departSpeed="max" from="-1122023993" to="1252829383#0-AddedOffRampEdge"/>
    <trip id="veh202" type="veh_passenger" depart="86.82" departLane="best" from="-24577415#0" to="1063253374#3"/>
    <trip id="veh203" type="veh_passenger" depart="87.25" departLane="best" from="585446272#0" to="44277690#5"/>
    <trip id="veh204" type="veh_passenger" depart="87.68" departLane="best" from="264104068" to="-44277694#3"/>
    <trip id="veh205" type="veh_passenger" depart="88.11" departLane="best" from="1116437802" to="-1072954052#0"/>
    <trip id="veh206" type="veh_passenger" depart="88.54" departLane="best" from="-276169621#0" to="1187268476#3"/>
    <trip id="veh207" type="veh_passenger" depart="88.97" departLane="best" from="-686626272" to="-1122215529#0"/>
    <trip id="veh208" type="veh_passenger" depart="89.40" departLane="best" from="611866601#1" to="24583487#0"/>
    <trip id="veh209" type="veh_passenger" depart="89.83" departLane="best" from="-164675827#2" to="32905331"/>
    <trip id="veh210" type="veh_passenger" depart="90.26" departLane="best" from="1186147246#1" to="-660123522#2"/>
    <trip id="veh211" type="veh_passenger" depart="90.69" departLane="best" from="24584375#0" to="-1042816605#8"/>
    <trip id="veh212" type="veh_passenger" depart="91.12" departLane="best" from="37222914#1" to="447141151#7"/>
    <trip id="veh213" type="veh_passenger" depart="91.55" departLane="best" from="-1271166590#1" to="-80440840#13"/>
    <trip id="veh214" type="veh_passenger" depart="91.98" departLane="best" from="-1201237168" to="-112102219#2"/>
    <trip id="veh215" type="veh_passenger" depart="92.41" departLane="best" departSpeed="max" from="-28211721#2" to="686696028#2"/>
    <trip id="veh216" type="veh_passenger" depart="92.84" departLane="best" from="1121142414" to="570859682#0-AddedOffRampEdge"/>
    <trip id="veh217" type="veh_passenger" depart="93.27" departLane="best" from="24584421#1" to="993539971#1"/>
    <trip id="veh218" type="veh_passenger" depart="93.70" departLane="best" from="176492654#9" to="778549698#2-AddedOnRampEdge"/>
    <trip id="veh219" type="veh_passenger" depart="94.13" departLane="best" from="708433701#0" to="24577381#0"/>
    <trip id="veh220" type="veh_passenger" depart="94.56" departLane="best" from="28211393#4" to="1236565126"/>
    <trip id="veh221" type="veh_passenger" depart="94.99" departLane="best" from="660123513#2" to="1320611453#1"/>
    <trip id="veh222" type="veh_passenger" depart="95.42" departLane="best" from="709276135#0" to="39013511#5"/>
    <trip id="veh223" type="veh_passenger" depart="95.85" departLane="best" from="1122230047#1" to="-696811930"/>
    <trip id="veh224" type="veh_passenger" depart="96.28" departLane="best" from="-28121513#2" to="24583770"/>
    <trip id="veh225" type="veh_passenger" depart="96.71" departLane="best" from="44351575#0" to="1253501577"/>
    <trip id="veh226" type="veh_passenger" depart="97.13" departLane="best" from="24577372#1" to="-718297220#1"/>
    <trip id="veh227" type="veh_passenger" depart="97.56" departLane="best" departSpeed="max" from="-1121139436" to="776550445#0"/>
    <trip id="veh228" type="veh_passenger" depart="97.99" departLane="best" from="-370902454#0" to="1053851215#0"/>
    <trip id="veh229" type="veh_passenger" depart="98.42" departLane="best" from="1271156412#2" to="-169221587#2"/>
    <trip id="veh230" type="veh_passenger" depart="98.85" departLane="best" from="-24584374#1" to="311783752"/>
    <trip id="veh231" type="veh_passenger" depart="99.28" departLane="best" from="309159548#2" to="-1122026477#3"/>
    <trip id="veh232" type="veh_passenger" depart="99.71" departLane="best" departSpeed="max" from="1063253375#0" to="1307655969#0"/>
    <trip id="veh233" type="veh_passenger" depart="100.14" departLane="best" from="1071490874#1" to="-370672197#9"/>
    <trip id="veh234" type="veh_passenger" depart="100.57" departLane="best" from="1072960943#1" to="-235103526#2"/>
    <trip id="veh235" type="veh_passenger" depart="101.00" departLane="best" from="164910181#4" to="32905262"/>
    <trip id="veh236" type="veh_passenger" depart="101.43" departLane="best" from="686685962#3" to="44352050#2"/>
    <trip id="veh237" type="veh_passenger" depart="101.86" departLane="best" from="-80950066#1" to="-1042816605#9"/>
    <trip id="veh238" type="veh_passenger" depart="102.29" departLane="best" from="-739750546#0" to="44351577#0"/>
    <trip id="veh239" type="veh_passenger" depart="102.72" departLane="best" from="686669564#1" to="782774056#1"/>
    <trip id="veh240" type="veh_passenger" depart="103.15" departLane="best" from="1072954053#1" to="423618455#1"/>
    <trip id="veh241" type="veh_passenger" depart="103.58" departLane="best" from="1278775918" to="24576721#9"/>