<?xml version="1.0" encoding="UTF-8"?>

<!-- generated on 2025-03-21 22:55:25.436202 by osmWebWizard.py v1_22_0+0002-63e50f52594
<configuration>
    <net-file value="C:\Windows\System32\2025-03-21-22-51-26\osm.net.xml.gz"/>
    <output-trip-file value="C:\Windows\System32\2025-03-21-22-51-26\osm.truck.trips.xml"/>
    <route-file value="C:\Windows\System32\2025-03-21-22-51-26\osm.truck.rou.xml"/>
    <prefix value="truck"/>
    <trip-attributes value="departLane=&quot;best&quot;"/>
    <fringe-start-attributes value="departSpeed=&quot;max&quot;"/>
    <vehicle-class value="truck"/>
    <fringe-factor value="5"/>
    <vclass value="truck"/>
    <via-edge-types value="highway.motorway,highway.motorway_link,highway.trunk_link,highway.primary_link,highway.secondary_link,highway.tertiary_link"/>
    <min-distance value="600.0"/>
    <min-distance.fringe value="10.0"/>
    <remove-loops value="True"/>
    <validate value="True"/>
    <insertion-density value="8.0"/>
</configuration>
-->

<!-- generated on 2025-03-21 22:55:06 by Eclipse SUMO duarouter Version 1.22.0
<duarouterConfiguration xmlns:xsi="http://www.w3.org/2001/XMLSchema-instance" xsi:noNamespaceSchemaLocation="http://sumo.dlr.de/xsd/duarouterConfiguration.xsd">

    <input>
        <net-file value="C:\Windows\System32\2025-03-21-22-51-26\osm.net.xml.gz"/>
        <route-files value="C:\Windows\System32\2025-03-21-22-51-26\osm.truck.trips.xml"/>
    </input>

    <output>
        <output-file value="C:\Windows\System32\2025-03-21-22-51-26\osm.truck.trips.xml.tmp"/>
        <alternatives-output value="NUL"/>
        <write-trips value="true"/>
    </output>

    <processing>
        <remove-loops value="true"/>
    </processing>

    <time>
        <begin value="0.0"/>
        <end value="3600.0"/>
    </time>

    <report>
        <no-warnings value="true"/>
        <ignore-errors value="true"/>
        <no-step-log value="true"/>
    </report>

</duarouterConfiguration>
-->

<routes xmlns:xsi="http://www.w3.org/2001/XMLSchema-instance" xsi:noNamespaceSchemaLocation="http://sumo.dlr.de/xsd/routes_file.xsd">
    <vType id="truck_truck" vClass="truck"/>
    <trip id="truck1" type="truck_truck" depart="0.64" departLane="best" from="-28121442#5" to="-338959814#0"/>
    <trip id="truck2" type="truck_truck" depart="1.29" departLane="best" from="292194572#1" to="24584383#1"/>
    <trip id="truck3" type="truck_truck" depart="1.93" departLane="best" departSpeed="max" from="70237512#0" to="-1123151125"/>
    <trip id="truck4" type="truck_truck" depart="2.58" departLane="best" from="-80950010#4" to="1072967421#1"/>
    <trip id="truck5" type="truck_truck" depart="3.22" departLane="best" from="-164684411#6" to="118011777#0"/>
    <trip id="truck6" type="truck_truck" depart="3.87" departLane="best" departSpeed="max" from="-1071423065" to="-24617991#7"/>
    <trip id="truck7" type="truck_truck" depart="4.51" departLane="best" from="23134751#5" to="1234918800"/>
    <trip id="truck8" type="truck_truck" depart="5.16" departLane="best" departSpeed="max" from="-164910176#1" to="1320611455#1"/>
    <trip id="truck9" type="truck_truck" depart="5.80" departLane="best" from="447130906#1-AddedOnRampEdge" to="1053851211#5"/>
    <trip id="truck10" type="truck_truck" depart="6.45" departLane="best" from="44351933#9" to="28103660#1"/>
    <trip id="truck11" type="truck_truck" depart="7.09" departLane="best" from="-561938852#3" to="-169221588#1"/>
    <trip id="truck13" type="truck_truck" depart="8.38" departLane="best" departSpeed="max" from="-1122023991" to="1153925787"/>
    <trip id="truck14" type="truck_truck" depart="9.03" departLane="best" from="612734123#0" to="164675827#6"/>
    <trip id="truck15" type="truck_truck" depart="9.67" departLane="best" from="44352053#0" to="-338959812#1"/>
    <trip id="truck16" type="truck_truck" depart="10.32" departLane="best" from="-707188916#2" to="1236568328"/>
    <trip id="truck17" type="truck_truck" depart="10.96" departLane="best" from="563679836#0" to="176492658#4"/>
    <trip id="truck18" type="truck_truck" depart="11.60" departLane="best" from="675478334#0" to="1292286058#2"/>
    <trip id="truck19" type="truck_truck" depart="12.25" departLane="best" from="24584420#3" to="-1075090701"/>
    <trip id="truck20" type="truck_truck" depart="12.89" departLane="best" from="-1201230321" to="-696811929#0"/>
    <trip id="truck21" type="truck_truck" depart="13.54" departLane="best" from="-1122026492#1" to="-686644028#0"/>
    <trip id="truck22" type="truck_truck" depart="14.18" departLane="best" from="169221588#0" to="1057069166#0"/>
    <trip id="truck23" type="truck_truck" depart="14.83" departLane="best" departSpeed="max" from="-696817949" to="-288500049"/>
    <trip id="truck24" type="truck_truck" depart="15.47" departLane="best" from="-24584503#1" to="760536611#0"/>
    <trip id="truck25" type="truck_truck" depart="16.12" departLane="best" from="23133600#1" to="-169196737#13"/>
    <trip id="truck26" type="truck_truck" depart="16.76" departLane="best" departSpeed="max" from="-1190541399#1" to="-33491982#3"/>
    <trip id="truck27" type="truck_truck" depart="17.41" departLane="best" departSpeed="max" from="-1186146961" to="1071437712#2"/>
    <trip id="truck28" type="truck_truck" depart="18.05" departLane="best" from="993538731#0" to="24563448#5"/>
    <trip id="truck29" type="truck_truck" depart="18.70" departLane="best" from="1187268502#0" to="24584422#0"/>
    <trip id="truck30" type="truck_truck" depart="19.34" departLane="best" from="-585974872#0" to="44277690#2"/>
    <trip id="truck31" type="truck_truck" depart="19.99" departLane="best" from="-169221588#1" to="-1072978659#1"/>
    <trip id="truck32" type="truck_truck" depart="20.63" departLane="best" from="-370955248#5" to="585974872#1"/>
    <trip id="truck33" type="truck_truck" depart="21.28" departLane="best" from="-142865883#2" to="77355800#6"/>
    <trip id="truck34" type="truck_truck" depart="21.92" departLane="best" from="686834805#1" to="-773567404#3"/>
    <trip id="truck35" type="truck_truck" depart="22.56" departLane="best" from="-1253499279#0" to="1074129724"/>
    <trip id="truck36" type="truck_truck" depart="23.21" departLane="best" from="716015301#1" to="1122030700"/>
    <trip id="truck37" type="truck_truck" depart="23.85" departLane="best" from="-24584418#3" to="-422146754#2"/>
    <trip id="truck38" type="truck_truck" depart="24.50" departLane="best" from="561759719#1" to="-553590474#2"/>
    <trip id="truck39" type="truck_truck" depart="25.14" departLane="best" from="1253489063" to="708474897#3"/>
    <trip id="truck40" type="truck_truck" depart="25.79" departLane="best" from="-766036526#2" to="-309159544#7"/>
    <trip id="truck41" type="truck_truck" depart="26.43" departLane="best" from="998790353#0" to="1183640961"/>
    <trip id="truck42" type="truck_truck" depart="27.08" departLane="best" departSpeed="max" from="-1122023977#3" to="1076564289"/>
    <trip id="truck43" type="truck_truck" depart="27.72" departLane="best" departSpeed="max" from="-1122030700" to="220385652#9"/>
    <trip id="truck44" type="truck_truck" depart="28.37" departLane="best" from="-442157836" to="-112102208#0"/>
    <trip id="truck46" type="truck_truck" depart="29.66" departLane="best" from="997761546#1" to="1187607311#2"/>
    <trip id="truck47" type="truck_truck" depart="30.30" departLane="best" from="80926778#2" to="686682898#2"/>
    <trip id="truck48" type="truck_truck" depart="30.95" departLane="best" departSpeed="max" from="-1057069134" to="309159543#0"/>
    <trip id="truck49" type="truck_truck" depart="31.59" departLane="best" from="24583330#6" to="1190541400#0"/>
    <trip id="truck50" type="truck_truck" depart="32.24" departLane="best" from="-24584426#0" to="24576721#7"/>
    <trip id="truck51" type="truck_truck" depart="32.88" departLane="best" from="-1122038572#1" to="1121139436"/>
    <trip id="truck52" type="truck_truck" depart="33.52" departLane="best" departSpeed="max" from="1063253375#0" to="-777743097#4"/>
    <trip id="truck53" type="truck_truck" depart="34.17" departLane="best" from="686701509#2" to="-553590478#2"/>
    <trip id="truck54" type="truck_truck" depart="34.81" departLane="best" from="112102237#3" to="24583487#0"/>
    <trip id="truck55" type="truck_truck" depart="35.46" departLane="best" from="-712992080#0" to="694445112#3"/>
    <trip id="truck56" type="truck_truck" depart="36.10" departLane="best" from="-370672197#0" to="24563435#0"/>
    <trip id="truck57" type="truck_truck" depart="36.75" departLane="best" from="1329173707#1" to="-169196745#1"/>
    <trip id="truck58" type="truck_truck" depart="37.39" departLane="best" from="370672197#4" to="1200970624#1"/>
    <trip id="truck59" type="truck_truck" depart="38.04" departLane="best" from="370955251#3" to="1187607313#1"/>
    <trip id="truck60" type="truck_truck" depart="38.68" departLane="best" from="-103176793#2" to="-80440840#11"/>
    <trip id="truck61" type="truck_truck" depart="39.33" departLane="best" from="-1063253367" to="74851423#1"/>
    <trip id="truck62" type="truck_truck" depart="39.97" departLane="best" from="-694445112#2" to="596373332#1-AddedOffRampEdge"/>
    <trip id="truck63" type="truck_truck" depart="40.62" departLane="best" from="-370955221#3" to="-112102237#2"/>
    <trip id="truck64" type="truck_truck" depart="41.26" departLane="best" from="-687946991#1" to="-775258786#2"/>
    <trip id="truck65" type="truck_truck" depart="41.91" departLane="best" departSpeed="max" from="-1121139436" to="1123830791#1"/>
    <trip id="truck66" type="truck_truck" depart="42.55" departLane="best" departSpeed="max" from="-1120299304" to="370955251#3"/>
    <trip id="truck67" type="truck_truck" depart="43.19" departLane="best" from="370765179#7" to="-1300354437#1"/>
    <trip id="truck68" type="truck_truck" depart="43.84" departLane="best" from="1074715753#1" to="1236565652"/>
    <trip id="truck69" type="truck_truck" depart="44.48" departLane="best" from="-24584420#0" to="696811929#1"/>
    <trip id="truck70" type="truck_truck" depart="45.13" departLane="best" from="80950016#1" to="-291266017#8"/>
    <trip id="truck73" type="truck_truck" depart="47.06" departLane="best" from="997761541#2" to="24577390#7"/>
    <trip id="truck74" type="truck_truck" depart="47.71" departLane="best" departSpeed="max" from="1042527093" to="1186146960#1"/>
    <trip id="truck75" type="truck_truck" depart="48.35" departLane="best" departSpeed="max" from="-1122220358#1" to="-359711991#2"/>
    <trip id="truck76" type="truck_truck" depart="49.00" departLane="best" from="-553590474#1" to="1320611453#1"/>
    <trip id="truck77" type="truck_truck" depart="49.64" departLane="best" from="-202800238#0" to="-309159562#0"/>
    <trip id="truck78" type="truck_truck" depart="50.29" departLane="best" from="-169221588#1" to="711421334#8"/>
    <trip id="truck79" type="truck_truck" depart="50.93" departLane="best" from="664985710#11" to="-1122026477#2"/>
    <trip id="truck80" type="truck_truck" depart="51.58" departLane="best" from="-235103526#0" to="24583596#1"/>
    <trip id="truck81" type="truck_truck" depart="52.22" departLane="best" from="163193932#2" to="-1311935389"/>
    <trip id="truck82" type="truck_truck" depart="52.87" departLane="best" from="74851428#5" to="1273251979"/>
    <trip id="truck83" type="truck_truck" depart="53.51" departLane="best" from="-773567404#0" to="44351928#12"/>
    <trip id="truck84" type="truck_truck" depart="54.15" departLane="best" from="446856065" to="-24584412"/>
    <trip id="truck85" type="truck_truck" depart="54.80" departLane="best" departSpeed="max" from="-1122026478" to="-112102244#4"/>
    <trip id="truck86" type="truck_truck" depart="55.44" departLane="best" from="-80950022#0" to="1122215538"/>
    <trip id="truck87" type="truck_truck" depart="56.09" departLane="best" departSpeed="max" from="288500048#0" to="24584375#4"/>
    <trip id="truck88" type="truck_truck" depart="56.73" departLane="best" from="80958874#5" to="-1183640963"/>
    <trip id="truck89" type="truck_truck" depart="57.38" departLane="best" from="1122030701" to="-80950089#0"/>
    <trip id="truck90" type="truck_truck" depart="58.02" departLane="best" from="675478334#0" to="1122026484#0"/>
    <trip id="truck91" type="truck_truck" depart="58.67" departLane="best" departSpeed="max" from="-1253169112" to="1122026485#1"/>
    <trip id="truck92" type="truck_truck" depart="59.31" departLane="best" from="80950010#2" to="-686645017"/>
    <trip id="truck93" type="truck_truck" depart="59.96" departLane="best" from="24583488#10" to="778549698#7"/>
    <trip id="truck94" type="truck_truck" depart="60.60" departLane="best" from="1057067120#0" to="686682898#2"/>
    <trip id="truck95" type="truck_truck" depart="61.25" departLane="best" from="-998790358#9" to="612734125"/>
    <trip id="truck96" type="truck_truck" depart="61.89" departLane="best" from="-80926770#0" to="743312245"/>
    <trip id="truck97" type="truck_truck" depart="62.54" departLane="best" from="633143618" to="-243179524#1"/>
    <trip id="truck98" type="truck_truck" depart="63.18" departLane="best" from="1075684718#0" to="-292194566#7"/>
    <trip id="truck99" type="truck_truck" depart="63.83" departLane="best" departSpeed="max" from="-773567404#5" to="-112102238#0"/>
    <trip id="truck100" type="truck_truck" depart="64.47" departLane="best" departSpeed="max" from="-707188916#4" to="1274849281#2"/>
    <trip id="truck101" type="truck_truck" depart="65.11" departLane="best" from="-24584420#2" to="44351927"/>
    <trip id="truck102" type="truck_truck" depart="65.76" departLane="best" from="1063253395" to="112102213#1"/>
    <trip id="truck104" type="truck_truck" depart="67.05" departLane="best" from="1187268499#1" to="293530132#6"/>
    <trip id="truck105" type="truck_truck" depart="67.69" departLane="best" departSpeed="max" from="-1183640961" to="-707566695#1"/>
    <trip id="truck106" type="truck_truck" depart="68.34" departLane="best" from="80926768#7" to="1304911906"/>
    <trip id="truck107" type="truck_truck" depart="68.98" departLane="best" from="116046169#0" to="370902454#2"/>
    <trip id="truck108" type="truck_truck" depart="69.63" departLane="best" from="-1075051017#0" to="1307655969#2"/>
    <trip id="truck109" type="truck_truck" depart="70.27" departLane="best" from="112102241#3" to="677663227#0"/>
    <trip id="truck110" type="truck_truck" depart="70.92" departLane="best" departSpeed="max" from="-1183653758" to="782774061#4"/>
    <trip id="truck111" type="truck_truck" depart="71.56" departLane="best" from="-112102241#6" to="-24583768#3"/>
    <trip id="truck112" type="truck_truck" depart="72.21" departLane="best" from="1287398725#2" to="24584380#0"/>
    <trip id="truck113" type="truck_truck" depart="72.85" departLane="best" from="-220387350" to="-1250154284#1"/>
    <trip id="truck114" type="truck_truck" depart="73.50" departLane="best" from="700313696#2" to="-422146754#2"/>
    <trip id="truck115" type="truck_truck" depart="74.14" departLane="best" from="1282119227#0" to="202678196#0"/>
    <trip id="truck116" type="truck_truck" depart="74.79" departLane="best" from="-80926781#0" to="-1307655968#2"/>
    <trip id="truck117" type="truck_truck" depart="75.43" departLane="best" departSpeed="max" from="1122215528#0" to="758753883"/>
    <trip id="truck118" type="truck_truck" depart="76.07" departLane="best" from="-1307655969#2" to="292194575#1"/>
    <trip id="truck119" type="truck_truck" depart="76.72" departLane="best" from="-235103610#4" to="1074129724"/>
    <trip id="truck120" type="truck_truck" depart="77.36" departLane="best" from="-24577409#0" to="712992080#1"/>
    <trip id="truck121" type="truck_truck" depart="78.01" departLane="best" from="-112102208#1" to="1122030699"/>
    <trip id="truck122" type="truck_truck" depart="78.65" departLane="best" from="998790357#0" to="997761546#1"/>
    <trip id="truck123" type="truck_truck" depart="79.30" departLane="best" from="-24584420#2" to="756173895#0"/>
    <trip id="truck124" type="truck_truck" depart="79.94" departLane="best" from="-696817950#0" to="700293880#0"/>
    <trip id="truck125" type="truck_truck" depart="80.59" departLane="best" from="570616026#10" to="28121614#0"/>
    <trip id="truck126" type="truck_truck" depart="81.23" departLane="best" from="138947059#1" to="973071397-AddedOnRampEdge"/>
    <trip id="truck127" type="truck_truck" depart="81.88" departLane="best" from="235103610#0" to="-1057067121"/>
    <trip id="truck128" type="truck_truck" depart="82.52" departLane="best" from="528320872#2" to="-708786616#0"/>
    <trip id="truck129" type="truck_truck" depart="83.17" departLane="best" from="24577096#0" to="769948199"/>
    <trip id="truck130" type="truck_truck" depart="83.81" departLane="best" departSpeed="max" from="-1122028509#1" to="1240749877"/>
    <trip id="truck131" type="truck_truck" depart="84.46" departLane="best" from="-276169618#1" to="164684411#9"/>
    <trip id="truck132" type="truck_truck" depart="85.10" departLane="best" from="169221586#5" to="-561672574#0"/>
    <trip id="truck133" type="truck_truck" depart="85.75" departLane="best" from="1078382396#0" to="711421334#8"/>
    <trip id="truck134" type="truck_truck" depart="86.39" departLane="best" from="611866595#4" to="-1123830791#2"/>
    <trip id="truck135" type="truck_truck" depart="87.03" departLane="best" from="-80950022#0" to="686626272"/>
    <trip id="truck136" type="truck_truck" depart="87.68" departLane="best" from="-1053851211#5" to="422146755#1"/>
    <trip id="truck137" type="truck_truck" depart="88.32" departLane="best" departSpeed="max" from="169222364#0" to="-537797267#1"/>
    <trip id="truck138" type="truck_truck" depart="88.97" departLane="best" from="309159544#4" to="1236568327"/>
    <trip id="truck139" type="truck_truck" depart="89.61" departLane="best" from="80950066#6" to="1057067136#1"/>
    <trip id="truck141" type="truck_truck" depart="90.90" departLane="best" from="708474897#3" to="-220385651#10"/>
    <trip id="truck142" type="truck_truck" depart="91.55" departLane="best" from="570859657#2" to="1307180796"/>
    <trip id="truck143" type="truck_truck" depart="92.19" departLane="best" departSpeed="max" from="-1138292927" to="-1292286057"/>
    <trip id="truck144" type="truck_truck" depart="92.84" departLane="best" from="-370955223#0" to="708474899#1"/>
    <trip id="truck145" type="truck_truck" depart="93.48" departLane="best" from="44351581#10" to="686682898#1"/>
    <trip id="truck146" type="truck_truck" depart="94.13" departLane="best" from="-707188916#2" to="-288500050"/>
    <trip id="truck147" type="truck_truck" depart="94.77" departLane="best" from="-24583488#1" to="1187268512#9"/>
    <trip id="truck148" type="truck_truck" depart="95.42" departLane="best" from="37222896#2" to="70220654"/>
    <trip id="truck149" type="truck_truck" depart="96.06" departLane="best" departSpeed="max" from="-776550445#2" to="202678360"/>
    <trip id="truck150" type="truck_truck" depart="96.71" departLane="best" departSpeed="max" from="-1183640961" to="74851423#6"/>
    <trip id="truck151" type="truck_truck" depart="97.35" departLane="best" from="682964502-AddedOnRampEdge" to="80950020#1"/>
    <trip id="truck152" type="truck_truck" depart="97.99" departLane="best" from="447141143#3" to="700313694#5"/>
    <trip id="truck153" type="truck_truck" depart="98.64" departLane="best" from="-1071184548" to="370534204#2"/>
    <trip id="truck154" type="truck_truck" depart="99.28" departLane="best" departSpeed="max" from="-45323262" to="563974730#4"/>
    <trip id="truck155" type="truck_truck" depart="99.93" departLane="best" from="44351929#1" to="686685962#1"/>
    <trip id="truck156" type="truck_truck" depart="100.57" departLane="best" from="447141143#3" to="-582090037"/>
    <trip id="truck157" type="truck_truck" depart="101.22" departLane="best" from="414024034" to="-1203086271"/>
    <trip id="truck158" type="truck_truck" depart="101.86" departLane="best" departSpeed="max" from="686673952#0" to="686669564#3"/>
    <trip id="truck159" type="truck_truck" depart="102.51" departLane="best" departSpeed="max" from="-164910181#5" to="563679836#1-AddedOnRampEdge"/>
    <trip id="truck160" type="truck_truck" depart="103.15" departLane="best" from="1071437713#1" to="-717531848#2"/>
    <trip id="truck161" type="truck_truck" depart="103.80" departLane="best" from="44351579#7" to="-370547061#0"/>
    <trip id="truck162" type="truck_truck" depart="104.44" departLane="best" from="-1063253379" to="-24584418#1"/>
    <trip id="truck163" type="truck_truck" depart="105.09" departLane="best" from="-44351928#5" to="686685962#3"/>
    <trip id="truck164" type="truck_truck" depart="105.73" departLane="best" from="80678182#0" to="-686645017"/>
    <trip id="truck165" type="truck_truck" depart="106.38" departLane="best" from="202678196#1" to="1074715756#0"/>
    <trip id="truck166" type="truck_truck" depart="107.02" departLane="best" from="80950089#3" to="1190541399#1"/>
    <trip id="truck167" type="truck_truck" depart="107.66" departLane="best" from="760536611#0" to="-1236550196"/>
    <trip id="truck168" type="truck_truck" depart="108.31" departLane="best" from="80926778#0" to="-24583487#11"/>
    <trip id="truck169" type="truck_truck" depart="108.95" departLane="best" from="80440840#3" to="-562205292#0"/>
    <trip id="truck170" type="truck_truck" depart="109.60" departLane="best" from="-1122030697#5" to="1121139435"/>
    <trip id="truck171" type="truck_truck" depart="110.24" departLane="best" from="28616711#1" to="766036526#4"/>
    <trip id="truck172" type="truck_truck" depart="110.89" departLane="best" departSpeed="max" from="-1313447926" to="1183653757#1"/>
    <trip id="truck173" type="truck_truck" depart="111.53" departLane="best" departSpeed="max" from="-716047367#1" to="-1292286056#0"/>
    <trip id="truck174" type="truck_truck" depart="112.18" departLane="best" from="24583593#3" to="287667957#0"/>
    <trip id="truck175" type="truck_truck" depart="112.82" departLane="best" from="-1042816605#4" to="739750545#3"/>
    <trip id="truck176" type="truck_truck" depart="113.47" departLane="best" from="1138292933#1" to="296963059#0"/>
    <trip id="truck177" type="truck_truck" depart="114.11" departLane="best" from="309159545#3" to="24583769#3"/>
    <trip id="truck179" type="truck_truck" depart="115.40" departLane="best" from="24577106#2" to="-80926778#3"/>
    <trip id="truck180" type="truck_truck" depart="116.05" departLane="best" from="28103660#3" to="-715742822#0"/>
    <trip id="truck181" type="truck_truck" depart="116.69" departLane="best" from="-370955224#2" to="1075257700"/>
    <trip id="truck182" type="truck_truck" depart="117.34" departLane="best" from="-774974015#2" to="-707188915#2"/>
    <trip id="truck183" type="truck_truck" depart="117.98" departLane="best" departSpeed="max" from="-1122257063" to="112102196#1"/>
    <trip id="truck184" type="truck_truck" depart="118.62" departLane="best" from="-766036526#4" to="24584384#0"/>
    <trip id="truck185" type="truck_truck" depart="119.27" departLane="best" from="708433698#1" to="169222358#1"/>
    <trip id="truck186" type="truck_truck" depart="119.91" departLane="best" from="-370765179#3" to="1236543063"/>
    <trip id="truck187" type="truck_truck" depart="120.56" departLane="best" from="103176793#1" to="-686834805#7"/>
    <trip id="truck189" type="truck_truck" depart="121.85" departLane="best" from="243179524#0" to="1122215532#1"/>
    <trip id="truck190" type="truck_truck" depart="122.49" departLane="best" from="1053851215#0" to="-292194566#7"/>
    <trip id="truck191" type="truck_truck" depart="123.14" departLane="best" departSpeed="max" from="1074157512#0" to="-708488754#4"/>
    <trip id="truck192" type="truck_truck" depart="123.78" departLane="best" departSpeed="max" from="44351581#0" to="-24577120"/>
    <trip id="truck193" type="truck_truck" depart="124.43" departLane="best" departSpeed="max" from="-1121139435" to="1184940963#1"/>
    <trip id="truck194" type="truck_truck" depart="125.07" departLane="best" from="169196745#0" to="80950021#0"/>
    <trip id="truck195" type="truck_truck" depart="125.72" departLane="best" from="553090002#0" to="370955221#4"/>
    <trip id="truck196" type="truck_truck" depart="126.36" departLane="best" from="-24577412#2" to="359711991#0"/>
    <trip id="truck198" type="truck_truck" depart="127.65" departLane="best" from="-24577416#2" to="1122231674"/>
    <trip id="truck199" type="truck_truck" depart="128.30" departLane="best" from="656933877#9" to="-1122026492#0"/>
    <trip id="truck200" type="truck_truck" depart="128.94" departLane="best" from="-80678182#1" to="23134680#1"/>
    <trip id="truck201" type="truck_truck" depart="129.58" departLane="best" departSpeed="max" from="112102205#0" to="-370955249#1"/>
    <trip id="truck202" type="truck_truck" depart="130.23" departLane="best" from="24537423#4" to="-1053580364"/>
    <trip id="truck203" type="truck_truck" depart="130.87" departLane="best" from="-343654534#1" to="391534135#0"/>
    <trip id="truck204" type="truck_truck" depart="131.52" departLane="best" from="-1122028507#2" to="112102221#3"/>
    <trip id="truck205" type="truck_truck" depart="132.16" departLane="best" departSpeed="max" from="-1228001447" to="779077038#4"/>
    <trip id="truck206" type="truck_truck" depart="132.81" departLane="best" from="1122028503#0" to="112102188#1"/>
    <trip id="truck207" type="truck_truck" depart="133.45" departLane="best" from="-24582921#8" to="664985709#4"/>
    <trip id="truck208" type="truck_truck" depart="134.10" departLane="best" from="111695524#11" to="523568284#1"/>
    <trip id="truck209" type="truck_truck" depart="134.74" departLane="best" from="24577367#6" to="984806477#2"/>
    <trip id="truck210" type="truck_truck" depart="135.39" departLane="best" from="1290450966#2" to="776550445#2"/>
    <trip id="truck211" type="truck_truck" depart="136.03" departLane="best" from="70220645#0" to="-169221586#2"/>
    <trip id="truck212" type="truck_truck" depart="136.68" departLane="best" from="28103660#0" to="116431919"/>
    <trip id="truck213" type="truck_truck" depart="137.32" departLane="best" from="563791811#5" to="1236543063"/>
    <trip id="truck215" type="truck_truck" depart="138.61" departLane="best" from="-24577418#5" to="24563348#10"/>
    <trip id="truck216" type="truck_truck" depart="139.26" departLane="best" from="370765179#7" to="1187268475#2"/>
    <trip id="truck217" type="truck_truck" depart="139.90" departLane="best" from="164684414" to="-663067894#0"/>
    <trip id="truck218" type="truck_truck" depart="140.54" departLane="best" from="-112102237#3" to="-686814926#0"/>
    <trip id="truck219" type="truck_truck" depart="141.19" departLane="best" from="1057069148#0" to="776550446"/>
    <trip id="truck221" type="truck_truck" depart="142.48" departLane="best" from="-24584426#0" to="-1121142415"/>
    <trip id="truck222" type="truck_truck" depart="143.12" departLane="best" from="-776905529#0" to="1219699876#0"/>
    <trip id="truck223" type="truck_truck" depart="143.77" departLane="best" from="-80926768#4" to="28121513#2"/>
    <trip id="truck224" type="truck_truck" depart="144.41" departLane="best" from="-80949994#3" to="711421326#0"/>
    <trip id="truck225" type="truck_truck" depart="145.06" departLane="best" from="1253176512#1-AddedOnRampEdge" to="276169620#0"/>
    <trip id="truck226" type="truck_truck" depart="145.70" departLane="best" from="663067894#4" to="37222917#0"/>
    <trip id="truck227" type="truck_truck" depart="146.35" departLane="best" from="-708433701#0" to="-1053580364"/>
    <trip id="truck228" type="truck_truck" depart="146.99" departLane="best" from="-663067891#2" to="370955226#2"/>
    <trip id="truck229" type="truck_truck" depart="147.64" departLane="best" from="660123522#3" to="777743097#2"/>
    <trip id="truck230" type="truck_truck" depart="148.28" departLane="best" from="-80926778#9" to="370902454#2"/>
    <trip id="truck231" type="truck_truck" depart="148.93" departLane="best" from="1183854103" to="-163795310#1"/>
    <trip id="truck232" type="truck_truck" depart="149.57" departLane="best" departSpeed="max" from="-164910176#1" to="-309159550#1"/>
    <trip id="truck233" type="truck_truck" depart="150.22" departLane="best" from="1005501933" to="-1072963716#0"/>
    <trip id="truck234" type="truck_truck" depart="150.86" departLane="best" from="-528320872#2" to="24584392#5"/>
    <trip id="truck235" type="truck_truck" depart="151.50" departLane="best" from="-775967402#1" to="-235103526#0"/>
    <trip id="truck236" type="truck_truck" depart="152.15" departLane="best" from="1072960946#2" to="-1292286058#0"/>
    <trip id="truck237" type="truck_truck" depart="152.79" departLane="best" from="163193933#14" to="-1072958465#0"/>
    <trip id="truck238" type="truck_truck" depart="153.44" departLane="best" from="-739750544#0" to="1253499279#3"/>
    <trip id="truck239" type="truck_truck" depart="154.08" departLane="best" departSpeed="max" from="-1071423067" to="24576760#0"/>
    <trip id="truck240" type="truck_truck" depart="154.73" departLane="best" departSpeed="max" from="-1123830778#1" to="1122038574#2"/>
    <trip id="truck241" type="truck_truck" depart="155.37" departLane="best" from="-1074715752#0" to="1071437712#2"/>
    <trip id="truck242" type="truck_truck" depart="156.02" departLane="best" from="-142865883#8" to="-80926764#6"/>
    <trip id="truck243" type="truck_truck" depart="156.66" departLane="best" departSpeed="max" from="370672196" to="1071437712#2"/>
    <trip id="truck244" type="truck_truck" depart="157.31" departLane="best" from="359559438#0" to="596373338#0"/>
    <trip id="truck245" type="truck_truck" depart="157.95" departLane="best" from="-24583584#2" to="1122215532#1"/>
    <trip id="truck246" type="truck_truck" depart="158.60" departLane="best" from="-1060463406#1" to="1200970624#1"/>
    <trip id="truck247" type="truck_truck" depart="159.24" departLane="best" from="998790362#0" to="1042816603"/>