<?xml version="1.0" encoding="UTF-8"?>

<!-- generated on 2025-03-21 22:53:51.338171 by osmWebWizard.py v1_22_0+0002-63e50f52594
<configuration>
    <net-file value="C:\Windows\System32\2025-03-21-22-51-26\osm.net.xml.gz"/>
    <output-trip-file value="C:\Windows\System32\2025-03-21-22-51-26\osm.motorcycle.trips.xml"/>
    <route-file value="C:\Windows\System32\2025-03-21-22-51-26\osm.motorcycle.rou.xml"/>
    <prefix value="motorcycle"/>
    <trip-attributes value="departLane=&quot;best&quot;"/>
    <fringe-start-attributes value="departSpeed=&quot;max&quot;"/>
    <vehicle-class value="motorcycle"/>
    <fringe-factor value="2"/>
    <vclass value="motorcycle"/>
    <via-edge-types value="highway.motorway,highway.motorway_link,highway.trunk_link,highway.primary_link,highway.secondary_link,highway.tertiary_link"/>
    <max-distance value="1200.0"/>
    <remove-loops value="True"/>
    <validate value="True"/>
    <insertion-density value="4.0"/>
</configuration>
-->

<!-- generated on 2025-03-21 22:53:49 by Eclipse SUMO duarouter Version 1.22.0
<duarouterConfiguration xmlns:xsi="http://www.w3.org/2001/XMLSchema-instance" xsi:noNamespaceSchemaLocation="http://sumo.dlr.de/xsd/duarouterConfiguration.xsd">

    <input>
        <net-file value="C:\Windows\System32\2025-03-21-22-51-26\osm.net.xml.gz"/>
        <route-files value="C:\Windows\System32\2025-03-21-22-51-26\osm.motorcycle.trips.xml"/>
    </input>

    <output>
        <output-file value="C:\Windows\System32\2025-03-21-22-51-26\osm.motorcycle.trips.xml.tmp"/>
        <alternatives-output value="NUL"/>
        <write-trips value="true"/>
    </output>

    <processing>
        <remove-loops value="true"/>
    </processing>

    <time>
        <begin value="0.0"/>
        <end value="3600.0"/>
    </time>

    <report>
        <no-warnings value="true"/>
        <ignore-errors value="true"/>
        <no-step-log value="true"/>
    </report>

</duarouterConfiguration>
-->

<routes xmlns:xsi="http://www.w3.org/2001/XMLSchema-instance" xsi:noNamespaceSchemaLocation="http://sumo.dlr.de/xsd/routes_file.xsd">
    <vType id="motorcycle_motorcycle" vClass="motorcycle"/>
    <trip id="motorcycle0" type="motorcycle_motorcycle" depart="0.00" departLane="best" departSpeed="max" from="-1121191989" to="-370765179#6"/>
    <trip id="motorcycle1" type="motorcycle_motorcycle" depart="1.29" departLane="best" from="-370902452#0" to="77349485#6"/>
    <trip id="motorcycle2" type="motorcycle_motorcycle" depart="2.58" departLane="best" from="-993539971#0" to="24583330#0"/>
    <trip id="motorcycle3" type="motorcycle_motorcycle" depart="3.87" departLane="best" from="-24584512#1" to="-1073010464"/>
    <trip id="motorcycle4" type="motorcycle_motorcycle" depart="5.16" departLane="best" from="-1057069137" to="370533502#0"/>
    <trip id="motorcycle5" type="motorcycle_motorcycle" depart="6.45" departLane="best" departSpeed="max" from="202800237#0" to="202800237#1"/>
    <trip id="motorcycle6" type="motorcycle_motorcycle" depart="7.74" departLane="best" from="44351933#6" to="776905529#0"/>
    <trip id="motorcycle7" type="motorcycle_motorcycle" depart="9.03" departLane="best" from="-370765179#6" to="700293881"/>
    <trip id="motorcycle8" type="motorcycle_motorcycle" depart="10.32" departLane="best" from="-112102241#10" to="24577409#5"/>
    <trip id="motorcycle9" type="motorcycle_motorcycle" depart="11.60" departLane="best" from="1243637979" to="370955251#1"/>
    <trip id="motorcycle10" type="motorcycle_motorcycle" depart="12.89" departLane="best" from="1078382396#2" to="169196737#0"/>
    <trip id="motorcycle11" type="motorcycle_motorcycle" depart="14.18" departLane="best" from="1125127547" to="686670996#0"/>
    <trip id="motorcycle12" type="motorcycle_motorcycle" depart="15.47" departLane="best" from="-1122023974#1" to="-24584384#2"/>
    <trip id="motorcycle13" type="motorcycle_motorcycle" depart="16.76" departLane="best" from="220385651#3" to="985796730#0"/>
    <trip id="motorcycle14" type="motorcycle_motorcycle" depart="18.05" departLane="best" from="502579560" to="-686834805#6"/>
    <trip id="motorcycle15" type="motorcycle_motorcycle" depart="19.34" departLane="best" from="1292286056#0" to="758753883"/>
    <trip id="motorcycle16" type="motorcycle_motorcycle" depart="20.63" departLane="best" from="-562499724#3" to="706854223#1"/>
    <trip id="motorcycle17" type="motorcycle_motorcycle" depart="21.92" departLane="best" from="-562499724#3" to="-553590482#0"/>
    <trip id="motorcycle18" type="motorcycle_motorcycle" depart="23.21" departLane="best" from="-24584414#1" to="581245363#4"/>
    <trip id="motorcycle19" type="motorcycle_motorcycle" depart="24.50" departLane="best" from="80499778#3" to="-553590474#0"/>
    <trip id="motorcycle20" type="motorcycle_motorcycle" depart="25.79" departLane="best" from="1123527993" to="112102237#3"/>
    <trip id="motorcycle21" type="motorcycle_motorcycle" depart="27.08" departLane="best" from="660123522#2" to="682964502-AddedOnRampEdge"/>
    <trip id="motorcycle22" type="motorcycle_motorcycle" depart="28.37" departLane="best" departSpeed="max" from="-615556516" to="1074774611"/>
    <trip id="motorcycle23" type="motorcycle_motorcycle" depart="29.66" departLane="best" from="-553590474#0" to="1277942000#1"/>
    <trip id="motorcycle24" type="motorcycle_motorcycle" depart="30.95" departLane="best" from="-103176793#1" to="686682898#1"/>
    <trip id="motorcycle25" type="motorcycle_motorcycle" depart="32.24" departLane="best" from="24583488#9" to="1122215537"/>
    <trip id="motorcycle26" type="motorcycle_motorcycle" depart="33.52" departLane="best" from="1074715754#0" to="-292194572#0"/>
    <trip id="motorcycle27" type="motorcycle_motorcycle" depart="34.81" departLane="best" from="1187268468#4" to="-112102186#0"/>
    <trip id="motorcycle28" type="motorcycle_motorcycle" depart="36.10" departLane="best" from="39013511#1" to="1203083886#2"/>
    <trip id="motorcycle29" type="motorcycle_motorcycle" depart="37.39" departLane="best" departSpeed="max" from="1072967423#0" to="-1072963716#0"/>
    <trip id="motorcycle30" type="motorcycle_motorcycle" depart="38.68" departLane="best" departSpeed="max" from="-1183653757#1" to="24584502"/>
    <trip id="motorcycle31" type="motorcycle_motorcycle" depart="39.97" departLane="best" from="-660123521#1" to="-275694829#1"/>
    <trip id="motorcycle32" type="motorcycle_motorcycle" depart="41.26" departLane="best" from="292194566#2" to="112102238#1"/>
    <trip id="motorcycle33" type="motorcycle_motorcycle" depart="42.55" departLane="best" departSpeed="max" from="1236532014#0" to="-1135418000"/>
    <trip id="motorcycle34" type="motorcycle_motorcycle" depart="43.84" departLane="best" departSpeed="max" from="-370902454#2" to="686669563"/>
    <trip id="motorcycle35" type="motorcycle_motorcycle" depart="45.13" departLane="best" from="1225342285" to="43540281#3"/>
    <trip id="motorcycle36" type="motorcycle_motorcycle" depart="46.42" departLane="best" from="-169221586#5" to="-112102196#1"/>
    <trip id="motorcycle37" type="motorcycle_motorcycle" depart="47.71" departLane="best" from="581245359" to="1072978656#1"/>
    <trip id="motorcycle38" type="motorcycle_motorcycle" depart="49.00" departLane="best" from="773743281#0" to="1186146960#0"/>
    <trip id="motorcycle39" type="motorcycle_motorcycle" depart="50.29" departLane="best" departSpeed="max" from="1122230046" to="-1122215528#0"/>
    <trip id="motorcycle40" type="motorcycle_motorcycle" depart="51.58" departLane="best" from="163193933#0" to="-24577417#3"/>
    <trip id="motorcycle41" type="motorcycle_motorcycle" depart="52.87" departLane="best" from="24584390#0" to="686696454#2"/>
    <trip id="motorcycle42" type="motorcycle_motorcycle" depart="54.15" departLane="best" from="686682929" to="80949994#3"/>
    <trip id="motorcycle43" type="motorcycle_motorcycle" depart="55.44" departLane="best" from="370955251#1" to="-24577367#6"/>
    <trip id="motorcycle44" type="motorcycle_motorcycle" depart="56.73" departLane="best" from="1057069142#1" to="76834907#1"/>
    <trip id="motorcycle45" type="motorcycle_motorcycle" depart="58.02" departLane="best" from="1271156412#3" to="1271156420#1"/>
    <trip id="motorcycle46" type="motorcycle_motorcycle" depart="59.31" departLane="best" from="164684411#4" to="700293874#1"/>
    <trip id="motorcycle47" type="motorcycle_motorcycle" depart="60.60" departLane="best" from="700293876#1" to="-1121139432#0"/>
    <trip id="motorcycle48" type="motorcycle_motorcycle" depart="61.89" departLane="best" from="32905262" to="1075051012#0"/>
    <trip id="motorcycle49" type="motorcycle_motorcycle" depart="63.18" departLane="best" from="-112102237#1" to="24577409#5"/>
    <trip id="motorcycle50" type="motorcycle_motorcycle" depart="64.47" departLane="best" from="1307655967#1" to="528320874#1"/>
    <trip id="motorcycle51" type="motorcycle_motorcycle" depart="65.76" departLane="best" from="-370955230" to="1329173707#1"/>
    <trip id="motorcycle52" type="motorcycle_motorcycle" depart="67.05" departLane="best" from="24577418#8" to="-716015301#4"/>
    <trip id="motorcycle54" type="motorcycle_motorcycle" depart="69.63" departLane="best" from="80499778#6" to="164684411#6"/>
    <trip id="motorcycle55" type="motorcycle_motorcycle" depart="70.92" departLane="best" from="80926774#0" to="686834805#2"/>
    <trip id="motorcycle56" type="motorcycle_motorcycle" depart="72.21" departLane="best" from="-553590482#0" to="1074764284#0"/>
    <trip id="motorcycle57" type="motorcycle_motorcycle" depart="73.50" departLane="best" from="763520419#0" to="686685083"/>
    <trip id="motorcycle58" type="motorcycle_motorcycle" depart="74.79" departLane="best" from="665150699#0" to="1122028502#2"/>
    <trip id="motorcycle59" type="motorcycle_motorcycle" depart="76.07" departLane="best" from="1042816605#9" to="-686699917#1"/>
    <trip id="motorcycle60" type="motorcycle_motorcycle" depart="77.36" departLane="best" from="-1249877655#0" to="138947059#1"/>
    <trip id="motorcycle61" type="motorcycle_motorcycle" depart="78.65" departLane="best" from="370947969" to="292194575#0"/>
    <trip id="motorcycle62" type="motorcycle_motorcycle" depart="79.94" departLane="best" departSpeed="max" from="-1057067137" to="370955249#4"/>
    <trip id="motorcycle63" type="motorcycle_motorcycle" depart="81.23" departLane="best" from="-612734122" to="563679821#2"/>
    <trip id="motorcycle64" type="motorcycle_motorcycle" depart="82.52" departLane="best" from="739750545#1" to="694445112#0"/>
    <trip id="motorcycle65" type="motorcycle_motorcycle" depart="83.81" departLane="best" from="292194570#1" to="1075962915#2"/>
    <trip id="motorcycle66" type="motorcycle_motorcycle" depart="85.10" departLane="best" from="-163193280#2" to="1187268499#3"/>
    <trip id="motorcycle67" type="motorcycle_motorcycle" depart="86.39" departLane="best" from="24583489#4" to="24583489#6"/>
    <trip id="motorcycle68" type="motorcycle_motorcycle" depart="87.68" departLane="best" from="24563348#4" to="696302919"/>
    <trip id="motorcycle69" type="motorcycle_motorcycle" depart="88.97" departLane="best" from="-1076564287#4" to="1187268486"/>
    <trip id="motorcycle70" type="motorcycle_motorcycle" depart="90.26" departLane="best" from="1271166590#1" to="528320872#1"/>
    <trip id="motorcycle71" type="motorcycle_motorcycle" depart="91.55" departLane="best" from="562340248#1" to="24583769#1"/>
    <trip id="motorcycle72" type="motorcycle_motorcycle" depart="92.84" departLane="best" from="44351928#11" to="-33491982#3"/>
    <trip id="motorcycle73" type="motorcycle_motorcycle" depart="94.13" departLane="best" from="77349485#4" to="-717046638#1"/>
    <trip id="motorcycle74" type="motorcycle_motorcycle" depart="95.42" departLane="best" from="-169196737#4" to="-292194572#3"/>
    <trip id="motorcycle75" type="motorcycle_motorcycle" depart="96.71" departLane="best" from="1073010464" to="-80678182#1"/>
    <trip id="motorcycle76" type="motorcycle_motorcycle" depart="97.99" departLane="best" from="1210584406#0" to="-717046638#0"/>
    <trip id="motorcycle77" type="motorcycle_motorcycle" depart="99.28" departLane="best" from="776550446" to="868635731"/>
    <trip id="motorcycle78" type="motorcycle_motorcycle" depart="100.57" departLane="best" from="717046638#1" to="-169196743#0"/>
    <trip id="motorcycle79" type="motorcycle_motorcycle" depart="101.86" departLane="best" from="-24584413" to="1122026484#0"/>
    <trip id="motorcycle80" type="motorcycle_motorcycle" depart="103.15" departLane="best" from="-1123830778#0" to="686685962#0"/>
    <trip id="motorcycle81" type="motorcycle_motorcycle" depart="104.44" departLane="best" from="24584375#3" to="-1122270703"/>
    <trip id="motorcycle82" type="motorcycle_motorcycle" depart="105.73" departLane="best" from="-33491982#3" to="1063253369#2"/>
    <trip id="motorcycle83" type="motorcycle_motorcycle" depart="107.02" departLane="best" from="24577106#2" to="563679820#0"/>
    <trip id="motorcycle84" type="motorcycle_motorcycle" depart="108.31" departLane="best" from="1066625120#0" to="-695576804#1"/>
    <trip id="motorcycle85" type="motorcycle_motorcycle" depart="109.60" departLane="best" from="1187268476#4" to="562202340#2"/>
    <trip id="motorcycle86" type="motorcycle_motorcycle" depart="110.89" departLane="best" from="-1122023974#1" to="24584391#2"/>
    <trip id="motorcycle87" type="motorcycle_motorcycle" depart="112.18" departLane="best" departSpeed="max" from="-1236568327" to="23138288"/>
    <trip id="motorcycle88" type="motorcycle_motorcycle" depart="113.47" departLane="best" from="-993539154#0" to="24583593#2"/>
    <trip id="motorcycle89" type="motorcycle_motorcycle" depart="114.76" departLane="best" departSpeed="max" from="-1122026493#2" to="278577243#3"/>
    <trip id="motorcycle90" type="motorcycle_motorcycle" depart="116.05" departLane="best" from="74851423#7" to="24577480#0"/>
    <trip id="motorcycle91" type="motorcycle_motorcycle" depart="117.34" departLane="best" from="1143815921" to="-276169620#0"/>
    <trip id="motorcycle92" type="motorcycle_motorcycle" depart="118.62" departLane="best" from="176492654#9" to="664985710#3-AddedOnRampEdge"/>
    <trip id="motorcycle93" type="motorcycle_motorcycle" depart="119.91" departLane="best" from="24577413" to="163193933#2"/>
    <trip id="motorcycle94" type="motorcycle_motorcycle" depart="121.20" departLane="best" from="-139069980#6" to="-717531847#3"/>
    <trip id="motorcycle95" type="motorcycle_motorcycle" depart="122.49" departLane="best" from="1184940962#0" to="-1184930811#0"/>
    <trip id="motorcycle96" type="motorcycle_motorcycle" depart="123.78" departLane="best" from="-1271156421#1" to="-1122026485#2"/>
    <trip id="motorcycle97" type="motorcycle_motorcycle" depart="125.07" departLane="best" from="686684499" to="-1271156421#4"/>
    <trip id="motorcycle98" type="motorcycle_motorcycle" depart="126.36" departLane="best" from="-24577367#6" to="1187268496#2"/>
    <trip id="motorcycle100" type="motorcycle_motorcycle" depart="128.94" departLane="best" from="44351931#1" to="44351932#12"/>
    <trip id="motorcycle101" type="motorcycle_motorcycle" depart="130.23" departLane="best" from="163193280#1" to="-24577417#0"/>
    <trip id="motorcycle102" type="motorcycle_motorcycle" depart="131.52" departLane="best" from="24576724#0" to="24576724#0"/>
    <trip id="motorcycle103" type="motorcycle_motorcycle" depart="132.81" departLane="best" from="24584511#2" to="-1072978659#1"/>
    <trip id="motorcycle104" type="motorcycle_motorcycle" depart="134.10" departLane="best" departSpeed="max" from="-1204190064" to="-288500048#0"/>
    <trip id="motorcycle105" type="motorcycle_motorcycle" depart="135.39" departLane="best" from="28121513#0" to="-163193933#6"/>
    <trip id="motorcycle106" type="motorcycle_motorcycle" depart="136.68" departLane="best" from="1253535600" to="756173895#1"/>
    <trip id="motorcycle107" type="motorcycle_motorcycle" depart="137.97" departLane="best" from="-1057067154" to="1345105351"/>
    <trip id="motorcycle108" type="motorcycle_motorcycle" depart="139.26" departLane="best" from="-1137810764#0" to="712992080#0"/>
    <trip id="motorcycle109" type="motorcycle_motorcycle" depart="140.54" departLane="best" from="1138292933#0" to="38699591#2"/>
    <trip id="motorcycle110" type="motorcycle_motorcycle" depart="141.83" departLane="best" from="24584415#1" to="1271156421#5"/>
    <trip id="motorcycle111" type="motorcycle_motorcycle" depart="143.12" departLane="best" from="-1076564289" to="1187268476#0"/>
    <trip id="motorcycle112" type="motorcycle_motorcycle" depart="144.41" departLane="best" from="-24577418#0" to="732001894"/>
    <trip id="motorcycle113" type="motorcycle_motorcycle" depart="145.70" departLane="best" from="-80926770#0" to="1249877655#1"/>
    <trip id="motorcycle114" type="motorcycle_motorcycle" depart="146.99" departLane="best" from="1183653757#0" to="1183653758"/>
    <trip id="motorcycle115" type="motorcycle_motorcycle" depart="148.28" departLane="best" from="1057069133" to="1313161443"/>
    <trip id="motorcycle116" type="motorcycle_motorcycle" depart="149.57" departLane="best" from="24584381#3" to="44277692#1"/>
    <trip id="motorcycle117" type="motorcycle_motorcycle" depart="150.86" departLane="best" from="1057067140" to="664985710#3-AddedOnRampEdge"/>
    <trip id="motorcycle118" type="motorcycle_motorcycle" depart="152.15" departLane="best" from="-1057067149" to="1187268480#0"/>
    <trip id="motorcycle119" type="motorcycle_motorcycle" depart="153.44" departLane="best" from="-220385652#8" to="1236543062"/>
    <trip id="motorcycle120" type="motorcycle_motorcycle" depart="154.73" departLane="best" from="37222901#4" to="-1126669172"/>
    <trip id="motorcycle121" type="motorcycle_motorcycle" depart="156.02" departLane="best" from="-1076564287#4" to="-1057067143"/>
    <trip id="motorcycle122" type="motorcycle_motorcycle" depart="157.31" departLane="best" from="1072960945#1" to="447141151#0"/>
    <trip id="motorcycle123" type="motorcycle_motorcycle" depart="158.60" departLane="best" from="1307655967#1" to="686699916#0"/>
    <trip id="motorcycle124" type="motorcycle_motorcycle" depart="159.89" departLane="best" from="-1074715752#1" to="-292194566#5"/>
    <trip id="motorcycle125" type="motorcycle_motorcycle" depart="161.18" departLane="best" from="-1121139432#0" to="74851423#8"/>
    <trip id="motorcycle126" type="motorcycle_motorcycle" depart="162.46" departLane="best" from="-163193933#5" to="37222903#3"/>
    <trip id="motorcycle127" type="motorcycle_motorcycle" depart="163.75" departLane="best" from="24584506" to="24584391#0"/>
    <trip id="motorcycle128" type="motorcycle_motorcycle" depart="165.04" departLane="best" from="292194575#1" to="24577416#4"/>
    <trip id="motorcycle129" type="motorcycle_motorcycle" depart="166.33" departLane="best" from="-1071467572#1" to="-80950101#1"/>
    <trip id="motorcycle130" type="motorcycle_motorcycle" depart="167.62" departLane="best" from="-686685084#1" to="1066625120#6"/>
    <trip id="motorcycle131" type="motorcycle_motorcycle" depart="168.91" departLane="best" from="-112102211#1" to="-112102237#3"/>
    <trip id="motorcycle132" type="motorcycle_motorcycle" depart="170.20" departLane="best" from="80926768#3" to="80926778#8"/>
    <trip id="motorcycle133" type="motorcycle_motorcycle" depart="171.49" departLane="best" from="164910162#5" to="1271885130"/>
    <trip id="motorcycle134" type="motorcycle_motorcycle" depart="172.78" departLane="best" from="779077038#2" to="1122039120"/>
    <trip id="motorcycle135" type="motorcycle_motorcycle" depart="174.07" departLane="best" from="292194566#8" to="112102244#0"/>
    <trip id="motorcycle136" type="motorcycle_motorcycle" depart="175.36" departLane="best" departSpeed="max" from="1181930215#0" to="1190555367#1"/>
    <trip id="motorcycle137" type="motorcycle_motorcycle" depart="176.65" departLane="best" from="-1072958464#0" to="-1072963716#1"/>
    <trip id="motorcycle138" type="motorcycle_motorcycle" depart="177.94" departLane="best" from="164910162#4" to="1071437712#0"/>
    <trip id="motorcycle139" type="motorcycle_motorcycle" depart="179.23" departLane="best" from="24584410" to="1122028510#1"/>
    <trip id="motorcycle140" type="motorcycle_motorcycle" depart="180.52" departLane="best" from="-169221588#0" to="24577418#11"/>
    <trip id="motorcycle141" type="motorcycle_motorcycle" depart="181.81" departLane="best" from="-1057067155#4" to="163193933#2"/>
    <trip id="motorcycle142" type="motorcycle_motorcycle" depart="183.09" departLane="best" departSpeed="max" from="-1122026474" to="-1072967425#0"/>
    <trip id="motorcycle143" type="motorcycle_motorcycle" depart="184.38" departLane="best" from="309159550#6" to="1274849280#1"/>
    <trip id="motorcycle144" type="motorcycle_motorcycle" depart="185.67" departLane="best" from="-28121486#4" to="565938874#0"/>
    <trip id="motorcycle145" type="motorcycle_motorcycle" depart="186.96" departLane="best" from="292194573#0" to="24577415#1"/>
    <trip id="motorcycle146" type="motorcycle_motorcycle" depart="188.25" departLane="best" from="-142865883#0" to="-164675827#2"/>
    <trip id="motorcycle147" type="motorcycle_motorcycle" depart="189.54" departLane="best" from="370955252" to="1253499279#3"/>
    <trip id="motorcycle148" type="motorcycle_motorcycle" depart="190.83" departLane="best" from="80499778#4" to="447602096#3"/>
    <trip id="motorcycle149" type="motorcycle_motorcycle" depart="192.12" departLane="best" from="1042816605#7" to="44351929#0"/>
    <trip id="motorcycle150" type="motorcycle_motorcycle" depart="193.41" departLane="best" from="370543237#1" to="-370765174#3"/>
    <trip id="motorcycle151" type="motorcycle_motorcycle" depart="194.70" departLane="best" from="111695524#8" to="24584415#1"/>
    <trip id="motorcycle152" type="motorcycle_motorcycle" depart="195.99" departLane="best" from="-80440840#13" to="-1123830770#1"/>
    <trip id="motorcycle153" type="motorcycle_motorcycle" depart="197.28" departLane="best" from="24583488#7" to="-423618455#2"/>
    <trip id="motorcycle154" type="motorcycle_motorcycle" depart="198.57" departLane="best" from="32905262" to="24577385#0"/>
    <trip id="motorcycle155" type="motorcycle_motorcycle" depart="199.86" departLane="best" from="-370955242#0" to="-169221586#4"/>
    <trip id="motorcycle156" type="motorcycle_motorcycle" depart="201.15" departLane="best" from="-276169621#5" to="682964502-AddedOnRampEdge"/>
    <trip id="motorcycle157" type="motorcycle_motorcycle" depart="202.44" departLane="best" from="1187268473#3" to="1187268496#3"/>
    <trip id="motorcycle158" type="motorcycle_motorcycle" depart="203.73" departLane="best" from="782774057#7" to="1183354350"/>
    <trip id="motorcycle159" type="motorcycle_motorcycle" depart="205.01" departLane="best" from="-686685084#2" to="138947059#1"/>
    <trip id="motorcycle160" type="motorcycle_motorcycle" depart="206.30" departLane="best" from="44188368#5" to="1063253371#0"/>
    <trip id="motorcycle161" type="motorcycle_motorcycle" depart="207.59" departLane="best" from="24576723#0" to="1186146961"/>
    <trip id="motorcycle162" type="motorcycle_motorcycle" depart="208.88" departLane="best" from="-292194566#6" to="292194575#0"/>
    <trip id="motorcycle163" type="motorcycle_motorcycle" depart="210.17" departLane="best" from="311742565#3" to="-24577409#1"/>
    <trip id="motorcycle164" type="motorcycle_motorcycle" depart="211.46" departLane="best" from="111695524#13" to="-1072963717#0"/>
    <trip id="motorcycle165" type="motorcycle_motorcycle" depart="212.75" departLane="best" from="-24584383#0" to="-1122028509#0"/>
    <trip id="motorcycle166" type="motorcycle_motorcycle" depart="214.04" departLane="best" from="563791816#0" to="370955226#0"/>
    <trip id="motorcycle167" type="motorcycle_motorcycle" depart="215.33" departLane="best" from="664985708#2-AddedOnRampEdge" to="-775967399#1"/>
    <trip id="motorcycle168" type="motorcycle_motorcycle" depart="216.62" departLane="best" from="112102213#0" to="169221589#0"/>
    <trip id="motorcycle169" type="motorcycle_motorcycle" depart="217.91" departLane="best" from="37222903#12" to="-370955248#3"/>
    <trip id="motorcycle170" type="motorcycle_motorcycle" depart="219.20" departLane="best" from="-1190145017" to="-370955222#2"/>
    <trip id="motorcycle171" type="motorcycle_motorcycle" depart="220.49" departLane="best" from="28121513#4" to="-1075051024#0"/>
    <trip id="motorcycle172" type="motorcycle_motorcycle" depart="221.78" departLane="best" departSpeed="max" from="112102205#0" to="562479736#4"/>
    <trip id="motorcycle173" type="motorcycle_motorcycle" depart="223.07" departLane="best" from="163193280#1" to="163193280#2"/>
    <trip id="motorcycle174" type="motorcycle_motorcycle" depart="224.36" departLane="best" from="-202800237#1" to="-663067894#5"/>
    <trip id="motorcycle175" type="motorcycle_motorcycle" depart="225.65" departLane="best" from="-370955249#4" to="-163193933#6"/>
    <trip id="motorcycle176" type="motorcycle_motorcycle" depart="226.93" departLane="best" from="1124069816" to="-1184940965"/>
    <trip id="motorcycle177" type="motorcycle_motorcycle" depart="228.22" departLane="best" from="995113419" to="1240749877"/>
    <trip id="motorcycle178" type="motorcycle_motorcycle" depart="229.51" departLane="best" from="-561938852#1" to="-292194566#5"/>
    <trip id="motorcycle179" type="motorcycle_motorcycle" depart="230.80" departLane="best" from="664985708#0" to="766036526#6"/>
    <trip id="motorcycle180" type="motorcycle_motorcycle" depart="232.09" departLane="best" from="80499271#0" to="24583592#4"/>
    <trip id="motorcycle181" type="motorcycle_motorcycle" depart="233.38" departLane="best" from="777743097#0" to="777743097#1"/>
    <trip id="motorcycle182" type="motorcycle_motorcycle" depart="234.67" departLane="best" from="80926768#6" to="-1073010465"/>
    <trip id="motorcycle183" type="motorcycle_motorcycle" depart="235.96" departLane="best" from="-28121513#3" to="80958874#0-AddedOnRampEdge"/>
    <trip id="motorcycle184" type="motorcycle_motorcycle" depart="237.25" departLane="best" from="370534205#1" to="1274849281#2"/>
    <trip id="motorcycle185" type="motorcycle_motorcycle" depart="238.54" departLane="best" from="1122026485#0" to="-1072967425#1"/>
    <trip id="motorcycle186" type="motorcycle_motorcycle" depart="239.83" departLane="best" from="-1271885078#3" to="1005501931"/>
    <trip id="motorcycle187" type="motorcycle_motorcycle" depart="241.12" departLane="best" from="1122038574#2" to="-24584392#1"/>
    <trip id="motorcycle188" type="motorcycle_motorcycle" depart="242.41" departLane="best" from="1122028508" to="1271156421#3"/>
    <trip id="motorcycle189" type="motorcycle_motorcycle" depart="243.70" departLane="best" from="24584381#0" to="-1122270703"/>
    <trip id="motorcycle190" type="motorcycle_motorcycle" depart="244.99" departLane="best" from="1220216801#0" to="696822224#5"/>
    <trip id="motorcycle191" type="motorcycle_motorcycle" depart="246.28" departLane="best" from="1121139432#0" to="706854224#0"/>
    <trip id="motorcycle192" type="motorcycle_motorcycle" depart="247.57" departLane="best" from="769948199" to="1075051017#1"/>
    <trip id="motorcycle193" type="motorcycle_motorcycle" depart="248.85" departLane="best" from="-1074118206#1" to="708433701#0"/>
    <trip id="motorcycle194" type="motorcycle_motorcycle" depart="250.14" departLane="best" from="-696302916#1" to="-370955221#2"/>
    <trip id="motorcycle195" type="motorcycle_motorcycle" depart="251.43" departLane="best" from="679512999-AddedOnRampEdge" to="70258960#0"/>
    <trip id="motorcycle196" type="motorcycle_motorcycle" depart="252.72" departLane="best" from="732001905" to="296963058#0"/>
    <trip id="motorcycle197" type="motorcycle_motorcycle" depart="254.01" departLane="best" departSpeed="max" from="-1063253376#1" to="44352054"/>
    <trip id="motorcycle198" type="motorcycle_motorcycle" depart="255.30" departLane="best" from="169221587#8" to="1187268476#0"/>
    <trip id="motorcycle199" type="motorcycle_motorcycle" depart="256.59" departLane="best" departSpeed="max" from="1183640963" to="24584396"/>
    <trip id="motorcycle200" type="motorcycle_motorcycle" depart="257.88" departLane="best" from="663067894#1" to="1057069148#1"/>
    <trip id="motorcycle201" type="motorcycle_motorcycle" depart="259.17" departLane="best" from="24577409#4" to="687946991#2"/>
    <trip id="motorcycle202" type="motorcycle_motorcycle" depart="260.46" departLane="best" from="1219699878#0" to="447141155#2"/>
    <trip id="motorcycle203" type="motorcycle_motorcycle" depart="261.75" departLane="best" from="663067894#5" to="338959812#6"/>
    <trip id="motorcycle204" type="motorcycle_motorcycle" depart="263.04" departLane="best" departSpeed="max" from="1122039119" to="44277690#1"/>
    <trip id="motorcycle205" type="motorcycle_motorcycle" depart="264.33" departLane="best" departSpeed="max" from="-686670996#1" to="660123513#5"/>
    <trip id="motorcycle206" type="motorcycle_motorcycle" depart="265.62" departLane="best" from="-220385651#5" to="275694828#1"/>
    <trip id="motorcycle207" type="motorcycle_motorcycle" depart="266.91" departLane="best" from="707566695#0" to="997761546#1"/>
    <trip id="motorcycle208" type="motorcycle_motorcycle" depart="268.20" departLane="best" from="997761544" to="24584393"/>
    <trip id="motorcycle209" type="motorcycle_motorcycle" depart="269.48" departLane="best" from="28121481#0-AddedOnRampEdge" to="24577409#0"/>
    <trip id="motorcycle210" type="motorcycle_motorcycle" depart="270.77" departLane="best" from="-44352054" to="-1075051015#0"/>
    <trip id="motorcycle211" type="motorcycle_motorcycle" depart="272.06" departLane="best" departSpeed="max" from="-1122038573#1" to="24584375#4"/>
    <trip id="motorcycle212" type="motorcycle_motorcycle" depart="273.35" departLane="best" from="24584420#1" to="1066625120#4"/>