<?xml version="1.0" encoding="UTF-8"?>

<!-- generated on 2025-03-10 22:27:29 by Eclipse SUMO netconvert Version 1.22.0
<netconvertConfiguration xmlns:xsi="http://www.w3.org/2001/XMLSchema-instance" xsi:noNamespaceSchemaLocation="http://sumo.dlr.de/xsd/netconvertConfiguration.xsd">

    <input>
        <sumo-net-file value="osm.net.xml"/>
    </input>

    <output>
        <plain-output-prefix value="plain"/>
        <output.street-names value="true"/>
    </output>

    <processing>
        <geometry.min-radius.fix.railways value="false"/>
        <geometry.max-grade.fix value="false"/>
        <offset.disable-normalization value="true"/>
        <lefthand value="1"/>
    </processing>

    <junctions>
        <no-turnarounds value="true"/>
        <junctions.corner-detail value="5"/>
        <junctions.limit-turn-speed value="5.50"/>
        <rectangular-lane-cut value="0"/>
    </junctions>

    <pedestrian>
        <walkingareas value="0"/>
    </pedestrian>

</netconvertConfiguration>
-->

<edges version="1.20" xmlns:xsi="http://www.w3.org/2001/XMLSchema-instance" xsi:noNamespaceSchemaLocation="http://sumo.dlr.de/xsd/edges_file.xsd">
    <location netOffset="-686488.78,-992406.50" convBoundary="0.00,0.00,2345.59,1369.24" origBoundary="76.696361,8.973920,76.717670,8.986286" projParameter="+proj=utm +zone=43 +ellps=WGS84 +datum=WGS84 +units=m +no_defs"/>

    <edge id="-1083437763" from="7500406415" to="9928852205" priority="3" type="highway.residential" numLanes="1" speed="13.89" shape="2254.33,971.08 2285.32,973.27 2342.93,976.43" disallow="tram rail_urban rail rail_electric rail_fast ship container cable_car subway aircraft wheelchair scooter drone">
        <lane index="0">
            <param key="origId" value="1083437763"/>
        </lane>
    </edge>
    <edge id="-1116026256" from="10207564179" to="10207564177" priority="3" type="highway.residential" numLanes="1" speed="13.89" shape="1855.72,383.93 1857.63,462.46 1870.55,565.25" disallow="tram rail_urban rail rail_electric rail_fast ship container cable_car subway aircraft wheelchair scooter drone">
        <lane index="0">
            <param key="origId" value="1116026256"/>
        </lane>
    </edge>
    <edge id="-1274749359#0" from="12146436359" to="cluster_2570383468_7494627564" name="Puthoor-Cheerancave Road" priority="11" type="highway.secondary" numLanes="1" speed="27.78" shape="1243.93,916.50 1245.12,932.44 1269.25,1014.19 1258.39,1066.88 1268.46,1184.14" disallow="tram rail_urban rail rail_electric rail_fast ship container cable_car subway aircraft wheelchair scooter drone">
        <lane index="0">
            <param key="origId" value="1274749359"/>
        </lane>
        <param key="origTo" value="2570383468"/>
    </edge>
    <edge id="-1274749359#1" from="12146436331" to="12146436359" name="Puthoor-Cheerancave Road" priority="11" type="highway.secondary" numLanes="1" speed="27.78" shape="1229.47,785.40 1237.10,824.73 1243.93,916.50" disallow="tram rail_urban rail rail_electric rail_fast ship container cable_car subway aircraft wheelchair scooter drone">
        <lane index="0">
            <param key="origId" value="1274749359"/>
        </lane>
    </edge>
    <edge id="-1274749359#2" from="3523084980" to="12146436331" name="Puthoor-Cheerancave Road" priority="11" type="highway.secondary" numLanes="1" speed="27.78" shape="1237.21,614.75 1216.62,660.54 1213.73,704.31 1229.47,785.40" disallow="tram rail_urban rail rail_electric rail_fast ship container cable_car subway aircraft wheelchair scooter drone">
        <lane index="0">
            <param key="origId" value="1274749359"/>
        </lane>
    </edge>
    <edge id="-1312265151" from="12146414306" to="12146414290" priority="4" type="highway.unclassified" numLanes="1" speed="13.89" shape="1344.77,235.28 1400.84,230.59 1431.64,235.38 1458.39,242.30 1473.33,243.92 1485.88,220.47 1490.28,213.99 1498.69,212.79 1557.18,221.73 1567.14,222.70 1572.76,221.18 1582.74,216.28 1587.14,207.64 1587.53,193.10 1586.72,166.49 1565.01,147.52 1567.77,21.64" disallow="tram rail_urban rail rail_electric rail_fast ship container cable_car subway aircraft wheelchair scooter drone">
        <lane index="0">
            <param key="origId" value="1312265151"/>
        </lane>
    </edge>
    <edge id="-1312265152" from="12146414307" to="12146414306" priority="4" type="highway.unclassified" numLanes="1" speed="13.89" shape="1344.33,250.50 1344.35,249.95 1344.77,235.28" disallow="tram rail_urban rail rail_electric rail_fast ship container cable_car subway aircraft wheelchair scooter drone">
        <lane index="0">
            <param key="origId" value="1312265152 1312265153"/>
        </lane>
    </edge>
    <edge id="-1312265154" from="12146414321" to="12146414306" priority="4" type="highway.unclassified" numLanes="1" speed="13.89" shape="1322.21,30.73 1319.41,49.79 1313.42,70.09 1303.13,90.38 1294.43,107.93 1295.35,113.89 1293.44,115.91 1291.38,124.11 1291.07,131.91 1291.26,149.56 1284.83,159.62 1289.48,186.67 1319.31,232.12 1344.77,235.28" disallow="tram rail_urban rail rail_electric rail_fast ship container cable_car subway aircraft wheelchair scooter drone">
        <lane index="0">
            <param key="origId" value="1312265154"/>
        </lane>
    </edge>
    <edge id="-1312265157#0" from="12146414356" to="8853802823" priority="3" type="highway.residential" numLanes="1" speed="13.89" shape="680.07,932.22 697.82,933.92 717.16,928.25 757.80,918.31 795.69,931.77" disallow="tram rail_urban rail rail_electric rail_fast ship container cable_car subway aircraft wheelchair scooter drone">
        <lane index="0">
            <param key="origId" value="1312265157"/>
        </lane>
    </edge>
    <edge id="-1312265157#1" from="12146414362" to="12146414356" priority="3" type="highway.residential" numLanes="1" speed="13.89" shape="747.42,1057.23 765.73,1018.52 766.58,1012.06 711.80,989.32 692.47,976.84 682.90,964.95 680.07,932.22" disallow="tram rail_urban rail rail_electric rail_fast ship container cable_car subway aircraft wheelchair scooter drone">
        <lane index="0">
            <param key="origId" value="1312265157"/>
        </lane>
    </edge>
    <edge id="-1312268116" from="12146423083" to="12146414356" priority="3" type="highway.residential" numLanes="1" speed="13.89" shape="657.84,836.38 667.31,842.48 672.42,848.57 680.07,932.22" disallow="tram rail_urban rail rail_electric rail_fast ship container cable_car subway aircraft wheelchair scooter drone">
        <lane index="0">
            <param key="origId" value="1312268116"/>
        </lane>
    </edge>
    <edge id="-1312268117#0" from="12146423087" to="12146423084" priority="4" type="highway.unclassified" numLanes="1" speed="13.89" shape="794.53,761.76 753.78,781.35 716.40,806.22 709.17,845.38" disallow="tram rail_urban rail rail_electric rail_fast ship container cable_car subway aircraft wheelchair scooter drone">
        <lane index="0">
            <param key="origId" value="1312268117"/>
        </lane>
    </edge>
    <edge id="-1312268117#1" from="12146423091" to="12146423087" priority="4" type="highway.unclassified" numLanes="1" speed="13.89" shape="764.29,706.27 773.66,704.43 781.65,704.33 786.79,707.72 794.53,761.76" disallow="tram rail_urban rail rail_electric rail_fast ship container cable_car subway aircraft wheelchair scooter drone">
        <lane index="0">
            <param key="origId" value="1312268117"/>
        </lane>
    </edge>
    <edge id="-1312268117#2" from="12146423093" to="12146423091" priority="4" type="highway.unclassified" numLanes="1" speed="13.89" shape="754.36,743.93 761.99,736.15 764.29,706.27" disallow="tram rail_urban rail rail_electric rail_fast ship container cable_car subway aircraft wheelchair scooter drone">
        <lane index="0">
            <param key="origId" value="1312268117"/>
        </lane>
    </edge>
    <edge id="-1312268118" from="12146423095" to="12146423087" priority="4" type="highway.unclassified" numLanes="1" speed="13.89" shape="989.63,817.00 880.40,772.44 794.53,761.76" disallow="tram rail_urban rail rail_electric rail_fast ship container cable_car subway aircraft wheelchair scooter drone">
        <lane index="0">
            <param key="origId" value="1312268118"/>
        </lane>
    </edge>
    <edge id="-1312268119#0" from="12146423097" to="12146423091" priority="4" type="highway.unclassified" numLanes="1" speed="13.89" shape="722.52,572.90 734.73,600.68 764.29,706.27" disallow="tram rail_urban rail rail_electric rail_fast ship container cable_car subway aircraft wheelchair scooter drone">
        <lane index="0">
            <param key="origId" value="1312268119"/>
        </lane>
    </edge>
    <edge id="-1312268119#1" from="12146436303" to="12146423097" priority="4" type="highway.unclassified" numLanes="1" speed="13.89" shape="629.82,589.00 645.20,625.85 684.81,605.95 679.83,601.13 678.78,595.80 683.82,590.49 722.52,572.90" disallow="tram rail_urban rail rail_electric rail_fast ship container cable_car subway aircraft wheelchair scooter drone">
        <lane index="0">
            <param key="origId" value="1312268119"/>
        </lane>
    </edge>
    <edge id="-1312268120#0" from="cluster_12146436309_12146436314" to="12146423097" priority="4" type="highway.unclassified" numLanes="1" speed="13.89" shape="735.95,401.74 733.12,442.34 740.59,459.95 763.46,536.49 760.75,543.59 719.03,554.23 722.52,572.90" disallow="tram rail_urban rail rail_electric rail_fast ship container cable_car subway aircraft wheelchair scooter drone">
        <lane index="0">
            <param key="origId" value="1312268120"/>
        </lane>
        <param key="origFrom" value="12146436309"/>
    </edge>
    <edge id="-1312268120#1" from="12146436310" to="cluster_12146436309_12146436314" priority="4" type="highway.unclassified" numLanes="1" speed="13.89" shape="697.95,382.79 735.95,401.74" disallow="tram rail_urban rail rail_electric rail_fast ship container cable_car subway aircraft wheelchair scooter drone">
        <lane index="0">
            <param key="origId" value="1312268120"/>
        </lane>
        <param key="origTo" value="12146436309"/>
    </edge>
    <edge id="-1312268120#2" from="6897428809" to="12146436310" priority="4" type="highway.unclassified" numLanes="1" speed="13.89" shape="505.10,337.83 513.01,340.38 557.72,340.76 608.59,355.37 697.95,382.79" disallow="tram rail_urban rail rail_electric rail_fast ship container cable_car subway aircraft wheelchair scooter drone">
        <lane index="0">
            <param key="origId" value="1312268120"/>
        </lane>
    </edge>
    <edge id="-1312268121#1" from="12146436315" to="cluster_12146436309_12146436314" priority="4" type="highway.unclassified" numLanes="1" speed="13.89" shape="803.40,378.29 739.03,377.28" disallow="tram rail_urban rail rail_electric rail_fast ship container cable_car subway aircraft wheelchair scooter drone">
        <lane index="0">
            <param key="origId" value="1312268121"/>
        </lane>
        <param key="origTo" value="12146436314"/>
    </edge>
    <edge id="-1312268122" from="12146436310" to="cluster_12146436309_12146436314" priority="4" type="highway.unclassified" numLanes="1" speed="13.89" shape="697.95,382.79 739.03,377.28" disallow="tram rail_urban rail rail_electric rail_fast ship container cable_car subway aircraft wheelchair scooter drone">
        <lane index="0">
            <param key="origId" value="1312268122"/>
        </lane>
        <param key="origTo" value="12146436314"/>
    </edge>
    <edge id="-1312268123#0" from="12146436325" to="1051448636" priority="4" type="highway.unclassified" numLanes="1" speed="13.89" shape="906.70,554.58 954.77,497.64 984.23,465.64" disallow="tram rail_urban rail rail_electric rail_fast ship container cable_car subway aircraft wheelchair scooter drone">
        <lane index="0">
            <param key="origId" value="1312268123"/>
        </lane>
    </edge>
    <edge id="-1312268123#1" from="12146436318" to="12146436325" priority="4" type="highway.unclassified" numLanes="1" speed="13.89" shape="873.52,586.98 905.32,556.21 906.70,554.58" disallow="tram rail_urban rail rail_electric rail_fast ship container cable_car subway aircraft wheelchair scooter drone">
        <lane index="0">
            <param key="origId" value="1312268123"/>
        </lane>
    </edge>
    <edge id="-1312268123#2" from="12146436321" to="12146436318" priority="4" type="highway.unclassified" numLanes="1" speed="13.89" shape="854.15,676.96 858.36,656.56 859.31,605.57 873.52,586.98" disallow="tram rail_urban rail rail_electric rail_fast ship container cable_car subway aircraft wheelchair scooter drone">
        <lane index="0">
            <param key="origId" value="1312268123"/>
        </lane>
    </edge>
    <edge id="-1312268123#3" from="12146436322" to="12146436321" priority="4" type="highway.unclassified" numLanes="1" speed="13.89" disallow="tram rail_urban rail rail_electric rail_fast ship container cable_car subway aircraft wheelchair scooter drone">
        <lane index="0">
            <param key="origId" value="1312268123"/>
        </lane>
    </edge>
    <edge id="-1312268124" from="12146436323" to="12146436321" priority="4" type="highway.unclassified" numLanes="1" speed="13.89" disallow="tram rail_urban rail rail_electric rail_fast ship container cable_car subway aircraft wheelchair scooter drone">
        <lane index="0">
            <param key="origId" value="1312268124"/>
        </lane>
    </edge>
    <edge id="-1312268125" from="12146436324" to="12146436318" priority="4" type="highway.unclassified" numLanes="1" speed="13.89" disallow="tram rail_urban rail rail_electric rail_fast ship container cable_car subway aircraft wheelchair scooter drone">
        <lane index="0">
            <param key="origId" value="1312268125"/>
        </lane>
    </edge>
    <edge id="-1312268126#0" from="12146436328" to="12146436325" priority="4" type="highway.unclassified" numLanes="1" speed="13.89" shape="983.89,617.70 967.16,602.52 945.93,590.51 906.70,554.58" disallow="tram rail_urban rail rail_electric rail_fast ship container cable_car subway aircraft wheelchair scooter drone">
        <lane index="0">
            <param key="origId" value="1312268126"/>
        </lane>
    </edge>
    <edge id="-1312268126#1" from="12146436329" to="12146436328" priority="4" type="highway.unclassified" numLanes="1" speed="13.89" disallow="tram rail_urban rail rail_electric rail_fast ship container cable_car subway aircraft wheelchair scooter drone">
        <lane index="0">
            <param key="origId" value="1312268126"/>
        </lane>
    </edge>
    <edge id="-1312268127" from="12146436330" to="12146436328" priority="4" type="highway.unclassified" numLanes="1" speed="13.89" disallow="tram rail_urban rail rail_electric rail_fast ship container cable_car subway aircraft wheelchair scooter drone">
        <lane index="0">
            <param key="origId" value="1312268127"/>
        </lane>
    </edge>
    <edge id="-1312268128#0" from="12146436356" to="12146436331" priority="3" type="highway.residential" numLanes="1" speed="13.89" shape="989.56,923.78 991.02,920.35 992.82,918.04 1009.27,919.01 1016.07,918.68 1018.22,916.21 1021.32,903.79 1017.97,891.87 1018.37,884.23 1018.59,874.64 1019.74,859.71 1047.56,799.62 1081.41,785.56 1101.70,808.40 1107.06,808.95 1119.24,805.81 1162.22,793.58 1166.15,793.07 1174.00,796.83 1181.87,797.93 1229.47,785.40" disallow="tram rail_urban rail rail_electric rail_fast ship container cable_car subway aircraft wheelchair scooter drone">
        <lane index="0">
            <param key="origId" value="1312268128"/>
        </lane>
    </edge>
    <edge id="-1312268128#1" from="12146436355" to="12146436356" priority="3" type="highway.residential" numLanes="1" speed="13.89" shape="958.77,1084.59 958.97,1082.93 964.88,1041.92 975.43,1005.38 988.31,926.73 989.56,923.78" disallow="tram rail_urban rail rail_electric rail_fast ship container cable_car subway aircraft wheelchair scooter drone">
        <lane index="0">
            <param key="origId" value="1312268128"/>
        </lane>
    </edge>
    <edge id="-1312268129" from="12146436358" to="12146436356" priority="3" type="highway.residential" numLanes="1" speed="13.89" shape="898.72,900.40 941.30,911.31 989.56,923.78" disallow="tram rail_urban rail rail_electric rail_fast ship container cable_car subway aircraft wheelchair scooter drone">
        <lane index="0">
            <param key="origId" value="1312268129"/>
        </lane>
    </edge>
    <edge id="-1312268130#0" from="12146436360" to="12146436359" priority="4" type="highway.unclassified" numLanes="1" speed="13.89" disallow="tram rail_urban rail rail_electric rail_fast ship container cable_car subway aircraft wheelchair scooter drone">
        <lane index="0">
            <param key="origId" value="1312268130"/>
        </lane>
    </edge>
    <edge id="-1312268130#1" from="12146436362" to="12146436360" priority="4" type="highway.unclassified" numLanes="1" speed="13.89" shape="1133.73,950.50 1145.89,923.13 1147.58,914.93" disallow="tram rail_urban rail rail_electric rail_fast ship container cable_car subway aircraft wheelchair scooter drone">
        <lane index="0">
            <param key="origId" value="1312268130"/>
        </lane>
    </edge>
    <edge id="-1312268131" from="12146436363" to="12146436360" priority="4" type="highway.unclassified" numLanes="1" speed="13.89" disallow="tram rail_urban rail rail_electric rail_fast ship container cable_car subway aircraft wheelchair scooter drone">
        <lane index="0">
            <param key="origId" value="1312268131"/>
        </lane>
    </edge>
    <edge id="-1312268132#0" from="12146436367" to="12146436364" priority="4" type="highway.unclassified" numLanes="1" speed="13.89" shape="1610.40,815.01 1606.09,814.99 1600.88,809.56 1584.47,715.68" disallow="tram rail_urban rail rail_electric rail_fast ship container cable_car subway aircraft wheelchair scooter drone">
        <lane index="0">
            <param key="origId" value="1312268132"/>
        </lane>
    </edge>
    <edge id="-1312268132#1" from="12146436371" to="12146436367" priority="4" type="highway.unclassified" numLanes="1" speed="13.89" shape="1617.28,861.48 1625.92,858.56 1627.06,856.12 1627.79,851.73 1610.40,815.01" disallow="tram rail_urban rail rail_electric rail_fast ship container cable_car subway aircraft wheelchair scooter drone">
        <lane index="0">
            <param key="origId" value="1312268132"/>
        </lane>
    </edge>
    <edge id="-1312268133" from="12146436373" to="12146436367" priority="4" type="highway.unclassified" numLanes="1" speed="13.89" shape="1654.90,837.16 1641.37,806.16 1610.40,815.01" disallow="tram rail_urban rail rail_electric rail_fast ship container cable_car subway aircraft wheelchair scooter drone">
        <lane index="0">
            <param key="origId" value="1312268133"/>
        </lane>
    </edge>
    <edge id="-1312268134#0" from="12146436581" to="12146436374" priority="4" type="highway.unclassified" numLanes="1" speed="13.89" shape="1771.79,843.37 1772.17,840.99 1762.42,804.84 1773.30,730.16" disallow="tram rail_urban rail rail_electric rail_fast ship container cable_car subway aircraft wheelchair scooter drone">
        <lane index="0">
            <param key="origId" value="1312268134"/>
        </lane>
    </edge>
    <edge id="-1312268134#1" from="12146436379" to="12146436581" priority="4" type="highway.unclassified" numLanes="1" speed="13.89" shape="1754.07,977.10 1765.73,955.36 1763.40,897.68 1771.79,843.37" disallow="tram rail_urban rail rail_electric rail_fast ship container cable_car subway aircraft wheelchair scooter drone">
        <lane index="0">
            <param key="origId" value="1312268134"/>
        </lane>
    </edge>
    <edge id="-1312268134#2" from="12146436395" to="12146436379" priority="4" type="highway.unclassified" numLanes="1" speed="13.89" shape="1537.09,1153.88 1557.95,1152.14 1610.99,1146.63 1615.70,1149.47 1617.31,1156.04 1628.83,1166.87 1630.93,1171.34 1637.52,1175.59 1642.00,1175.84 1650.98,1173.54 1720.74,1142.45 1725.93,1141.30 1733.48,1140.41 1733.33,1122.36 1740.46,1112.07 1747.65,1037.09 1754.07,977.10" disallow="tram rail_urban rail rail_electric rail_fast ship container cable_car subway aircraft wheelchair scooter drone">
        <lane index="0">
            <param key="origId" value="1312268134"/>
        </lane>
    </edge>
    <edge id="-1312268134#3" from="12146436402" to="12146436395" priority="4" type="highway.unclassified" numLanes="1" speed="13.89" shape="1600.55,1253.99 1584.79,1229.92 1576.58,1204.89 1570.55,1200.17 1553.45,1187.13 1540.48,1172.89 1537.89,1168.97 1537.09,1153.88" disallow="tram rail_urban rail rail_electric rail_fast ship container cable_car subway aircraft wheelchair scooter drone">
        <lane index="0">
            <param key="origId" value="1312268134"/>
        </lane>
    </edge>
    <edge id="-1312268134#4" from="12146436404" to="12146436402" priority="4" type="highway.unclassified" numLanes="1" speed="13.89" shape="1604.22,1348.17 1610.74,1330.26 1600.55,1253.99" disallow="tram rail_urban rail rail_electric rail_fast ship container cable_car subway aircraft wheelchair scooter drone">
        <lane index="0">
            <param key="origId" value="1312268134"/>
        </lane>
    </edge>
    <edge id="-1312268148#0" from="12146436467" to="12146436463" priority="4" type="highway.unclassified" numLanes="1" speed="13.89" shape="1866.71,1360.37 1866.40,1361.69 1863.77,1368.00" disallow="tram rail_urban rail rail_electric rail_fast ship container cable_car subway aircraft wheelchair scooter drone">
        <lane index="0">
            <param key="origId" value="1312268148"/>
        </lane>
    </edge>
    <edge id="-1312268149" from="7500406439" to="12146436467" priority="4" type="highway.unclassified" numLanes="1" speed="13.89" shape="1891.63,1255.25 1891.13,1257.36 1888.90,1266.77 1866.71,1360.37" disallow="tram rail_urban rail rail_electric rail_fast ship container cable_car subway aircraft wheelchair scooter drone">
        <lane index="0">
            <param key="origId" value="1312268149 1312268150 1312268148"/>
        </lane>
    </edge>
    <edge id="-1312268151" from="12146436470" to="12146436467" priority="4" type="highway.unclassified" numLanes="1" speed="13.89" shape="1920.08,1369.24 1896.60,1361.07 1866.71,1360.37" disallow="tram rail_urban rail rail_electric rail_fast ship container cable_car subway aircraft wheelchair scooter drone">
        <lane index="0">
            <param key="origId" value="1312268151"/>
        </lane>
    </edge>
    <edge id="-1312268157" from="12146436509" to="12146436506" priority="4" type="highway.unclassified" numLanes="1" speed="13.89" shape="2140.51,1344.86 2145.48,1351.81 2147.78,1358.04 2149.53,1365.34" disallow="tram rail_urban rail rail_electric rail_fast ship container cable_car subway aircraft wheelchair scooter drone">
        <lane index="0">
            <param key="origId" value="1312268157"/>
        </lane>
    </edge>
    <edge id="-1312268158" from="12146436512" to="12146436510" priority="3" type="highway.residential" numLanes="1" speed="13.89" shape="2225.90,1313.50 2232.79,1254.45 2330.31,1279.82" disallow="tram rail_urban rail rail_electric rail_fast ship container cable_car subway aircraft wheelchair scooter drone">
        <lane index="0">
            <param key="origId" value="1312268158"/>
        </lane>
    </edge>
    <edge id="-1312268159#0" from="12146436514" to="12146436513" priority="3" type="highway.residential" numLanes="1" speed="13.89" disallow="tram rail_urban rail rail_electric rail_fast ship container cable_car subway aircraft wheelchair scooter drone">
        <lane index="0">
            <param key="origId" value="1312268159"/>
        </lane>
    </edge>
    <edge id="-1312268159#1" from="7500406459" to="12146436514" priority="3" type="highway.residential" numLanes="1" speed="13.89" shape="1858.52,826.87 1868.44,823.45 1900.37,808.79 1921.91,808.89 1946.83,813.85 1961.02,821.60 1973.64,836.00 1970.94,884.15" disallow="tram rail_urban rail rail_electric rail_fast ship container cable_car subway aircraft wheelchair scooter drone">
        <lane index="0">
            <param key="origId" value="1312268159"/>
        </lane>
    </edge>
    <edge id="-1312268160#0" from="12146436522" to="12146436514" priority="3" type="highway.residential" numLanes="1" speed="13.89" shape="2036.79,933.44 1987.26,890.25 1970.94,884.15" disallow="tram rail_urban rail rail_electric rail_fast ship container cable_car subway aircraft wheelchair scooter drone">
        <lane index="0">
            <param key="origId" value="1312268160"/>
        </lane>
    </edge>
    <edge id="-1312268160#1" from="12146436535" to="12146436522" priority="3" type="highway.residential" numLanes="1" speed="13.89" shape="2048.48,960.84 2039.82,953.92 2036.79,933.44" disallow="tram rail_urban rail rail_electric rail_fast ship container cable_car subway aircraft wheelchair scooter drone">
        <lane index="0">
            <param key="origId" value="1312268160"/>
        </lane>
    </edge>
    <edge id="-1312268160#2" from="12146436525" to="12146436535" priority="3" type="highway.residential" numLanes="1" speed="13.89" shape="2069.13,974.25 2049.81,961.91 2048.48,960.84" disallow="tram rail_urban rail rail_electric rail_fast ship container cable_car subway aircraft wheelchair scooter drone">
        <lane index="0">
            <param key="origId" value="1312268160"/>
        </lane>
    </edge>
    <edge id="-1312268160#3" from="12146436531" to="12146436525" priority="3" type="highway.residential" numLanes="1" speed="13.89" shape="2080.96,1077.36 2074.60,1061.35 2063.20,1051.34 2055.37,1040.46 2052.21,1030.86 2052.07,1020.02 2069.13,974.25" disallow="tram rail_urban rail rail_electric rail_fast ship container cable_car subway aircraft wheelchair scooter drone">
        <lane index="0">
            <param key="origId" value="1312268160"/>
        </lane>
    </edge>
    <edge id="-1312268161" from="12146436534" to="12146436525" priority="3" type="highway.residential" numLanes="1" speed="13.89" shape="2178.26,984.87 2127.31,979.48 2116.62,971.61 2069.13,974.25" disallow="tram rail_urban rail rail_electric rail_fast ship container cable_car subway aircraft wheelchair scooter drone">
        <lane index="0">
            <param key="origId" value="1312268161"/>
        </lane>
    </edge>
    <edge id="-1312268162#0" from="12146436536" to="12146436535" priority="3" type="highway.residential" numLanes="1" speed="13.89" shape="2061.49,943.82 2054.14,953.44 2048.48,960.84" disallow="tram rail_urban rail rail_electric rail_fast ship container cable_car subway aircraft wheelchair scooter drone">
        <lane index="0">
            <param key="origId" value="1312268162"/>
        </lane>
    </edge>
    <edge id="-1312268162#1" from="12146436617" to="12146436536" priority="3" type="highway.residential" numLanes="1" speed="13.89" shape="2130.95,865.53 2129.45,865.25 2121.58,867.35 2111.33,879.91 2092.07,906.83 2061.49,943.82" disallow="tram rail_urban rail rail_electric rail_fast ship container cable_car subway aircraft wheelchair scooter drone">
        <lane index="0">
            <param key="origId" value="1312268162"/>
        </lane>
    </edge>
    <edge id="-1312268162#2" from="12146436621" to="12146436617" priority="3" type="highway.residential" numLanes="1" speed="13.89" shape="2159.68,881.80 2158.54,878.89 2149.47,869.78 2141.25,867.44 2130.95,865.53" disallow="tram rail_urban rail rail_electric rail_fast ship container cable_car subway aircraft wheelchair scooter drone">
        <lane index="0">
            <param key="origId" value="1312268162"/>
        </lane>
    </edge>
    <edge id="-1312268162#3" from="12146436534" to="12146436621" priority="3" type="highway.residential" numLanes="1" speed="13.89" shape="2178.26,984.87 2177.41,973.32 2163.73,954.95 2160.01,948.19 2159.85,942.68 2168.40,913.41 2168.42,908.61 2167.37,902.56 2162.78,889.74 2159.68,881.80" disallow="tram rail_urban rail rail_electric rail_fast ship container cable_car subway aircraft wheelchair scooter drone">
        <lane index="0">
            <param key="origId" value="1312268162"/>
        </lane>
    </edge>
    <edge id="-1312268163" from="12146436522" to="12146436536" priority="3" type="highway.residential" numLanes="1" speed="13.89" disallow="tram rail_urban rail rail_electric rail_fast ship container cable_car subway aircraft wheelchair scooter drone">
        <lane index="0">
            <param key="origId" value="1312268163"/>
        </lane>
    </edge>
    <edge id="-1312268164" from="12146436562" to="12146436534" name="Ezhukone Panchyat Road" priority="3" type="highway.residential" numLanes="1" speed="13.89" shape="1887.90,1195.81 1896.25,1191.77 1922.86,1178.87 2004.15,1154.86 2027.68,1139.63 2037.89,1128.77 2071.61,1107.11 2096.35,1091.89 2135.09,1059.48 2141.14,1054.41 2157.97,1040.33 2165.48,1030.81 2177.81,1001.78 2178.07,991.78 2178.26,984.87" disallow="tram rail_urban rail rail_electric rail_fast ship container cable_car subway aircraft wheelchair scooter drone">
        <lane index="0">
            <param key="origId" value="1312268164"/>
        </lane>
    </edge>
    <edge id="-1312268165" from="12146436572" to="12146436569" priority="3" type="highway.residential" numLanes="1" speed="13.89" shape="2331.06,849.92 2328.74,845.99 2327.41,825.73 2331.86,792.71" disallow="tram rail_urban rail rail_electric rail_fast ship container cable_car subway aircraft wheelchair scooter drone">
        <lane index="0">
            <param key="origId" value="1312268165"/>
        </lane>
    </edge>