<?xml version="1.0" encoding="UTF-8"?>

<!-- generated on 2025-03-10 22:27:29 by Eclipse SUMO netconvert Version 1.22.0
<netconvertConfiguration xmlns:xsi="http://www.w3.org/2001/XMLSchema-instance" xsi:noNamespaceSchemaLocation="http://sumo.dlr.de/xsd/netconvertConfiguration.xsd">

    <input>
        <sumo-net-file value="osm.net.xml"/>
    </input>

    <output>
        <plain-output-prefix value="plain"/>
        <output.street-names value="true"/>
    </output>

    <processing>
        <geometry.min-radius.fix.railways value="false"/>
        <geometry.max-grade.fix value="false"/>
        <offset.disable-normalization value="true"/>
        <lefthand value="1"/>
    </processing>

    <junctions>
        <no-turnarounds value="true"/>
        <junctions.corner-detail value="5"/>
        <junctions.limit-turn-speed value="5.50"/>
        <rectangular-lane-cut value="0"/>
    </junctions>

    <pedestrian>
        <walkingareas value="0"/>
    </pedestrian>

</netconvertConfiguration>
-->

<tlLogics version="1.20" xmlns:xsi="http://www.w3.org/2001/XMLSchema-instance" xsi:noNamespaceSchemaLocation="http://sumo.dlr.de/xsd/tllogic_file.xsd">
    <connection from="-736702743#1" to="-736702743#0" fromLane="0" toLane="0" tl="7500235953" linkIndex="1"/>
    <connection from="251750357" to="251750360#1" fromLane="0" toLane="0" tl="7500235953" linkIndex="-1"/>
    <connection from="736702743#0" to="736702743#1" fromLane="0" toLane="0" tl="7500235953" linkIndex="0"/>
</tlLogics>
